#======================================================================

# CRYSTAL DATA

#----------------------------------------------------------------------

data_VESTA_phase_1


_pd_phase_name                         VOFFIVE_15_Co_i
_cell_length_a                         29.97971
_cell_length_b                         28.97090
_cell_length_c                         7.85871
_cell_angle_alpha                      90
_cell_angle_beta                       90
_cell_angle_gamma                      90
_symmetry_space_group_name_H-M         P 1
_symmetry_Int_Tables_number            1

loop_
_symmetry_equiv_pos_as_xyz
   x, y, z

loop_
   _atom_site_label
   _atom_site_fract_x
   _atom_site_fract_y
   _atom_site_fract_z
   _atom_site_charge
C	0.9327432100424113 0.1024201731338557 0.8977421365535897	0.104659
C	0.9009561924341190 0.0676785878228687 0.9028584475273190	-0.167109
C	0.7699283619225836 0.9362709012913077 0.9051601067217799	-0.113850
C	0.7357880870470875 0.9041046330107237 0.9049220767274485	-0.117254
C	0.5688171322389718 0.7417593759550534 0.8975763266304350	0.100980
C	0.6022337209077888 0.7748079964654510 0.9024174289305086	-0.170141
C	0.4327431460424058 0.6024201561338581 0.8977421365535897	0.104659
C	0.4009561604341161 0.5676785678228672 0.9028584475273190	-0.167110
C	0.2699283619225835 0.4362708692913055 0.9051601067217799	-0.113848
C	0.2357880870470873 0.4041046330107240 0.9049220767274485	-0.117251
C	0.0688171722389678 0.2417593919550544 0.8975763266304350	0.100972
C	0.1022337129077951 0.2748079794654529 0.9024174289305086	-0.170126
C	0.0672568339575924 0.8975798438661419 0.3977421365535897	0.104660
C	0.0990438395658838 0.9323214321771328 0.4028584475273196	-0.167110
C	0.2300716700774120 0.0637291397086917 0.4051601067217798	-0.113849
C	0.2642119289529141 0.0958953589892755 0.4049220767274482	-0.117254
C	0.4311828357610329 0.2582406240449470 0.3975762956304361	0.100974
C	0.3977662790922114 0.2251920035345491 0.4024174289305089	-0.170143
C	0.5672567899575887 0.3975798108661429 0.3977421365535897	0.104660
C	0.5990438075658810 0.4323214001771302 0.4028584475273196	-0.167110
C	0.7300716380774164 0.5637290987086923 0.4051601067217798	-0.113849
C	0.7642119129529125 0.5958953669892763 0.4049220767274482	-0.117254
C	0.9311828677610282 0.7582406240449466 0.3975762956304361	0.100980
C	0.8977662790922112 0.7251920035345490 0.4024174289305089	-0.170141
C	0.0668088799100256 0.1028989761820287 0.6028186327246848	0.103685
C	0.0986567427031361 0.0681502247557127 0.5959952784444141	-0.164088
C	0.2300758971596810 0.9362683247209960 0.5946720039385072	-0.114582
C	0.2642046556102974 0.9041105803989373 0.5949113060170019	-0.116435
C	0.4316373714842842 0.7413158012204428 0.6029392966543853	0.101473
C	0.3981863883103095 0.7744206195847255 0.5963273033167193	-0.169646
C	0.5668088359100221 0.6028989591820307 0.6028186327246848	0.103685
C	0.5986567107031334 0.5681502047557110 0.5959952784444141	-0.164088
C	0.7300758651596854 0.4362682927209934 0.5946720039385072	-0.114581
C	0.7642046396102964 0.4041105803989378 0.5949113060170019	-0.116432
C	0.9316374034842796 0.2413158172204438 0.6029392966543853	0.101470
C	0.8981863883103096 0.2744206025847278 0.5963273033167193	-0.169631
C	0.9331911640899779 0.8971010408179693 0.1028186567246799	0.103686
C	0.9013432892968666 0.9318497952442890 0.0959952544444191	-0.164089
C	0.7699241348403146 0.0637317162790040 0.0946720429385068	-0.114582
C	0.7357953603897036 0.0958894116010615 0.0949113290170001	-0.116435
C	0.5683625965157204 0.2586841987795576 0.1029392886543844	0.101472
C	0.6018136116896904 0.2255793804152744 0.0963273193167205	-0.169646
C	0.4331911000899727 0.3971010078179700 0.1028186567246799	0.103686
C	0.4013432572968638 0.4318497632442863 0.0959952544444191	-0.164089
C	0.2699241348403145 0.5637316752790040 0.0946720429385068	-0.114582
C	0.2357953603897038 0.5958894196010627 0.0949113290170001	-0.116435
C	0.0683626365157164 0.7586841987795572 0.1029392886543844	0.101472
C	0.1018136036896968 0.7255793804152745 0.0963273193167205	-0.169646
C	0.0668088799100256 0.8971010408179693 0.1028186567246799	0.103686
C	0.0986567427031361 0.9318497952442890 0.0959952544444191	-0.164089
C	0.2300758971596810 0.0637317162790040 0.0946720429385068	-0.114582
C	0.2642046556102974 0.0958894116010615 0.0949113290170001	-0.116436
C	0.4316373714842842 0.2586841987795576 0.1029392886543844	0.101472
C	0.3981863883103095 0.2255793804152744 0.0963273193167205	-0.169647
C	0.5668088359100221 0.3971010078179700 0.1028186567246799	0.103686
C	0.5986567107031334 0.4318497632442863 0.0959952544444191	-0.164089
C	0.7300758651596854 0.5637316752790040 0.0946720429385068	-0.114582
C	0.7642046396102964 0.5958894196010627 0.0949113290170001	-0.116436
C	0.9316374034842796 0.7586841987795572 0.1029392886543844	0.101472
C	0.8981863883103096 0.7255793804152745 0.0963273193167205	-0.169647
C	0.9331911640899779 0.1028989761820287 0.6028186327246848	0.103685
C	0.9013432892968666 0.0681502247557127 0.5959952784444141	-0.164088
C	0.7699241348403146 0.9362683247209960 0.5946720039385072	-0.114582
C	0.7357953603897036 0.9041105803989373 0.5949113060170019	-0.116436
C	0.5683625965157204 0.7413158012204428 0.6029392966543853	0.101473
C	0.6018136116896904 0.7744206195847255 0.5963273033167193	-0.169647
C	0.4331911000899727 0.6028989591820307 0.6028186327246848	0.103685
C	0.4013432572968638 0.5681502047557110 0.5959952784444141	-0.164088
C	0.2699241348403145 0.4362682927209934 0.5946720039385072	-0.114581
C	0.2357953603897038 0.4041105803989378 0.5949113060170019	-0.116433
C	0.0683626365157164 0.2413158172204438 0.6029392966543853	0.101470
C	0.1018136036896968 0.2744206025847278 0.5963273033167193	-0.169631
C	0.9327432100424113 0.8975798438661419 0.3977421365535897	0.104660
C	0.9009561924341190 0.9323214321771328 0.4028584475273196	-0.167110
C	0.7699283619225836 0.0637291397086917 0.4051601067217798	-0.113849
C	0.7357880870470875 0.0958953589892755 0.4049220767274482	-0.117254
C	0.5688171322389718 0.2582406240449470 0.3975762956304361	0.100980
C	0.6022337209077888 0.2251920035345491 0.4024174289305089	-0.170141
C	0.4327431460424058 0.3975798108661429 0.3977421365535897	0.104660
C	0.4009561604341161 0.4323214001771302 0.4028584475273196	-0.167110
C	0.2699283619225835 0.5637290987086923 0.4051601067217798	-0.113849
C	0.2357880870470873 0.5958953669892763 0.4049220767274482	-0.117254
C	0.0688171722389678 0.7582406240449466 0.3975762956304361	0.100974
C	0.1022337129077951 0.7251920035345490 0.4024174289305089	-0.170143
C	0.0672568339575924 0.1024201731338557 0.8977421365535897	0.104659
C	0.0990438395658838 0.0676785878228687 0.9028584475273190	-0.167110
C	0.2300716700774120 0.9362709012913077 0.9051601067217799	-0.113849
C	0.2642119289529141 0.9041046330107237 0.9049220767274485	-0.117254
C	0.4311828357610329 0.7417593759550534 0.8975763266304350	0.100975
C	0.3977662790922114 0.7748079964654510 0.9024174289305086	-0.170143
C	0.5672567899575887 0.6024201561338581 0.8977421365535897	0.104659
C	0.5990438075658810 0.5676785678228672 0.9028584475273190	-0.167109
C	0.7300716380774164 0.4362708692913055 0.9051601067217799	-0.113848
C	0.7642119129529125 0.4041046330107240 0.9049220767274485	-0.117251
C	0.9311828677610282 0.2417593919550544 0.8975763266304350	0.100978
C	0.8977662790922112 0.2748079794654529 0.9024174289305086	-0.170125
C	0.6538680497694154 0.8255864723467012 0.7483106139528352	-0.105454
C	0.8843851464151482 0.0498379154942905 0.7488105469283991	0.160496
C	0.8219360505802183 0.9859534142051560 0.7495225450929371	-0.099736
C	0.6196709295022553 0.7920482076663141 0.7487205661914703	0.168374
C	0.7874531668629988 0.9528108029497772 0.7499065353008387	0.125131
C	0.7181756594532055 0.8874515312782941 0.7498971754316385	0.137795
C	0.6835794092624448 0.8543978642453092 0.7494715930369871	-0.100079
C	0.8512891843950078 0.0151555878202699 0.7484004666084899	-0.104932
C	0.1538680017694183 0.3255865053467001 0.7483106139528352	-0.105514
C	0.3843851144151452 0.5498378904942918 0.7488105469283991	0.160496
C	0.3219360825802212 0.4859534472051623 0.7495225450929371	-0.099735
C	0.1196709055022533 0.2920482076663145 0.7487205661914703	0.168295
C	0.2874531988629943 0.4528108029497772 0.7499065353008387	0.125132
C	0.2181756274532029 0.3874515642782938 0.7498971754316385	0.137754
C	0.1835794252624457 0.3543978642453089 0.7494715930369871	-0.099928
C	0.3512892163950033 0.5151556238202729 0.7484004666084899	-0.104932
C	0.3461320142305830 0.1744135106532939 0.2483105979528336	-0.105453
C	0.1156148695848534 0.9501621095057082 0.2488105309283971	0.160496
C	0.1780639494197815 0.0140465667948389 0.2495225290929357	-0.099734
C	0.3803291024977474 0.2079517923336855 0.2487205501914690	0.168374
C	0.2125468171370071 0.0471891800502178 0.2499065193008371	0.125131
C	0.2818243725467972 0.1125484517217078 0.2498971594316372	0.137795
C	0.3164205907375557 0.1456021357546910 0.2494715770369859	-0.100080
C	0.1487107996049908 0.9848443761797271 0.2484004506084886	-0.104933
C	0.8461319502305846 0.6744135276532988 0.2483105979528336	-0.105453
C	0.6156148535848518 0.4501621095057080 0.2488105309283971	0.160496
C	0.6780639494197817 0.5140465857948440 0.2495225290929357	-0.099734
C	0.8803290704977447 0.7079517923336859 0.2487205501914690	0.168373
C	0.7125468331370012 0.5471891970502228 0.2499065193008371	0.125131
C	0.7818243405467945 0.6125484687217059 0.2498971594316372	0.137795
C	0.8164205907375552 0.6456021357546908 0.2494715770369859	-0.100080
C	0.6487108156049922 0.4848444091797264 0.2484004506084886	-0.104933
C	0.3461320142305830 0.8255864723467012 0.7483106139528352	-0.105454
C	0.1156148695848534 0.0498379154942905 0.7488105469283991	0.160496
C	0.1780639494197815 0.9859534142051560 0.7495225450929371	-0.099736
C	0.3803291024977474 0.7920482076663141 0.7487205661914703	0.168374
C	0.2125468171370071 0.9528108029497772 0.7499065353008387	0.125131
C	0.2818243725467972 0.8874515312782941 0.7498971754316385	0.137794
C	0.3164205907375557 0.8543978642453092 0.7494715930369871	-0.100079
C	0.1487107996049908 0.0151555878202699 0.7484004666084899	-0.104932
C	0.8461319502305846 0.3255865053467001 0.7483106139528352	-0.105514
C	0.6156148535848518 0.5498378904942918 0.7488105469283991	0.160496
C	0.6780639494197817 0.4859534472051623 0.7495225450929371	-0.099736
C	0.8803290704977447 0.2920482076663145 0.7487205661914703	0.168294
C	0.7125468331370012 0.4528108029497772 0.7499065353008387	0.125131
C	0.7818243405467945 0.3874515642782938 0.7498971754316385	0.137754
C	0.8164205907375552 0.3543978642453089 0.7494715930369871	-0.099929
C	0.6487108156049922 0.5151556238202729 0.7484004666084899	-0.104932
C	0.6538680497694154 0.1744135106532939 0.2483105979528336	-0.105453
C	0.8843851464151482 0.9501621095057082 0.2488105309283971	0.160496
C	0.8219360505802183 0.0140465667948389 0.2495225290929357	-0.099734
C	0.6196709295022553 0.2079517923336855 0.2487205501914690	0.168373
C	0.7874531668629988 0.0471891800502178 0.2499065193008371	0.125131
C	0.7181756594532055 0.1125484517217078 0.2498971594316372	0.137795
C	0.6835794092624448 0.1456021357546910 0.2494715770369859	-0.100080
C	0.8512891843950078 0.9848443761797271 0.2484004506084886	-0.104933
C	0.1538680017694183 0.6744135276532988 0.2483105979528336	-0.105453
C	0.3843851144151452 0.4501621095057080 0.2488105309283971	0.160496
C	0.3219360825802212 0.5140465857948440 0.2495225290929357	-0.099734
C	0.1196709055022533 0.7079517923336859 0.2487205501914690	0.168374
C	0.2874531988629943 0.5471891970502228 0.2499065193008371	0.125131
C	0.2181756274532029 0.6125484687217059 0.2498971594316372	0.137795
C	0.1835794252624457 0.6456021357546908 0.2494715770369859	-0.100080
C	0.3512892163950033 0.4848444091797264 0.2484004506084886	-0.104934
H	0.9458861166755484 0.1169347645290840 0.0150472647559615	0.098071
H	0.8890456474882080 0.0545058033796812 0.0243814512850798	0.121201
H	0.7836198344725810 0.9491346313428678 0.0244555961817901	0.106719
H	0.7221862861444834 0.8912479808398507 0.0242328962075100	0.115820
H	0.5549475456151913 0.7279785188834272 0.0148394543953949	0.097185
H	0.6147547541233663 0.7871551480327205 0.0241160357246256	0.126791
H	0.4458861816755433 0.6169347395290858 0.0150472647559615	0.098071
H	0.3890456474882081 0.5545057703796821 0.0243814512850798	0.121201
H	0.2836198024725851 0.4491346643428669 0.0244555961817901	0.106720
H	0.2221862861444826 0.3912479478398515 0.0242328962075101	0.115819
H	0.0549474976151948 0.2279785348834288 0.0148394543953949	0.097187
H	0.1147548021233702 0.2871550820327222 0.0241160357246256	0.126790
H	0.0541138353244546 0.8830652604709142 0.5150472497559641	0.098070
H	0.1109543525117918 0.9454942296203179 0.5243814512850800	0.121201
H	0.2163801975274149 0.0508653396571335 0.5244555961817899	0.106719
H	0.2778137138555176 0.1087520601601491 0.5242328652075038	0.115821
H	0.4450525193848029 0.2720214651165713 0.5148394623953959	0.097187
H	0.3852451818766355 0.2128449009672800 0.5241160627246311	0.126790
H	0.5541138833244516 0.3830652604709144 0.5150472497559641	0.098070
H	0.6109543525117920 0.4454941966203187 0.5243814512850800	0.121201
H	0.7163801655274190 0.5508653356571330 0.5244555961817899	0.106719
H	0.7778137138555166 0.6087520191601493 0.5242328652075038	0.115821
H	0.9450524543848087 0.7720214811165728 0.5148394623953959	0.097185
H	0.8852452458766337 0.7128448519672795 0.5241160627246311	0.126790
H	0.0531880768628801 0.1178848739792847 0.4869587733376518	0.108444
H	0.1103044264076463 0.0552857169002157 0.4736811691050002	0.120674
H	0.2163801333579196 0.9491405392855840 0.4754109499386611	0.107028
H	0.2778209284839122 0.8912398570994707 0.4756612337045691	0.115654
H	0.4459374169314282 0.7271438238591097 0.4868498878559335	0.107936
H	0.3859420098927147 0.7864843344271714 0.4738736241019299	0.126319
H	0.5531881248628768 0.6178848489792858 0.4869587733376518	0.108444
H	0.6103044264076464 0.5552856839002167 0.4736811691050002	0.120674
H	0.7163801013579241 0.4491405722855835 0.4754109499386611	0.107028
H	0.7778209284839118 0.3912398240994713 0.4756612337045691	0.115653
H	0.9459373519314332 0.2271438398591111 0.4868498878559335	0.107936
H	0.8859420738927127 0.2864842684271732 0.4738736241019299	0.126317
H	0.9468118751371232 0.8821151510207142 0.9869587423376524	0.108443
H	0.8896955735923536 0.9447143160997833 0.9736811381050015	0.120675
H	0.7836198986420759 0.0508594317144169 0.9754109179386580	0.107027
H	0.7221790715160882 0.1087601839005292 0.9756612337045693	0.115654
H	0.5540626480685668 0.2728561601408890 0.9868498878559334	0.107936
H	0.6140579261072873 0.2135157145728290 0.9738736241019297	0.126318
H	0.4468119401371174 0.3821151510207138 0.9869587423376524	0.108443
H	0.3896955735923538 0.4447142830997843 0.9736811381050015	0.120675
H	0.2836198666420802 0.5508594277144169 0.9754109179386580	0.107027
H	0.2221790715160881 0.6087601429005293 0.9756612337045693	0.115654
H	0.0540626000685696 0.7728561761408903 0.9868498878559334	0.107936
H	0.1140579741072912 0.7135156655728286 0.9738736241019297	0.126318
H	0.0531880768628801 0.8821151510207142 0.9869587423376524	0.108443
H	0.1103044264076463 0.9447143160997833 0.9736811381050015	0.120675
H	0.2163801333579196 0.0508594317144169 0.9754109179386580	0.107027
H	0.2778209284839122 0.1087601839005292 0.9756612337045693	0.115657
H	0.4459374169314282 0.2728561601408890 0.9868498878559334	0.107936
H	0.3859420098927147 0.2135157145728290 0.9738736241019297	0.126319
H	0.5531881248628768 0.3821151510207138 0.9869587423376524	0.108443
H	0.6103044264076464 0.4447142830997843 0.9736811381050015	0.120675
H	0.7163801013579241 0.5508594277144169 0.9754109179386580	0.107027
H	0.7778209284839118 0.6087601429005293 0.9756612337045693	0.115656
H	0.9459373519314332 0.7728561761408903 0.9868498878559334	0.107936
H	0.8859420738927127 0.7135156655728286 0.9738736241019297	0.126319
H	0.9468118751371232 0.1178848739792847 0.4869587733376518	0.108444
H	0.8896955735923536 0.0552857169002157 0.4736811691050002	0.120674
H	0.7836198986420759 0.9491405392855840 0.4754109499386611	0.107028
H	0.7221790715160882 0.8912398570994707 0.4756612337045691	0.115656
H	0.5540626480685668 0.7271438238591097 0.4868498878559335	0.107936
H	0.6140579261072873 0.7864843344271714 0.4738736241019299	0.126320
H	0.4468119401371174 0.6178848489792858 0.4869587733376518	0.108444
H	0.3896955735923538 0.5552856839002167 0.4736811691050002	0.120674
H	0.2836198666420802 0.4491405722855835 0.4754109499386611	0.107028
H	0.2221790715160881 0.3912398240994713 0.4756612337045691	0.115655
H	0.0540626000685696 0.2271438398591111 0.4868498878559335	0.107936
H	0.1140579741072912 0.2864842684271732 0.4738736241019299	0.126318
H	0.9458861166755484 0.8830652604709142 0.5150472497559641	0.098070
H	0.8890456474882080 0.9454942296203179 0.5243814512850800	0.121201
H	0.7836198344725810 0.0508653396571335 0.5244555961817899	0.106719
H	0.7221862861444834 0.1087520601601491 0.5242328652075038	0.115823
H	0.5549475456151913 0.2720214651165713 0.5148394623953959	0.097186
H	0.6147547541233663 0.2128449009672800 0.5241160627246311	0.126791
H	0.4458861816755433 0.3830652604709144 0.5150472497559641	0.098071
H	0.3890456474882081 0.4454941966203187 0.5243814512850800	0.121201
H	0.2836198024725851 0.5508653356571330 0.5244555961817899	0.106719
H	0.2221862861444826 0.6087520191601493 0.5242328652075038	0.115823
H	0.0549474976151948 0.7720214811165728 0.5148394623953959	0.097187
H	0.1147548021233702 0.7128448519672795 0.5241160627246311	0.126791
H	0.0541138353244546 0.1169347645290840 0.0150472647559615	0.098071
H	0.1109543525117918 0.0545058033796812 0.0243814512850798	0.121201
H	0.2163801975274149 0.9491346313428678 0.0244555961817901	0.106720
H	0.2778137138555176 0.8912479808398507 0.0242328962075100	0.115822
H	0.4450525193848029 0.7279785188834272 0.0148394543953949	0.097187
H	0.3852451818766355 0.7871551480327205 0.0241160357246256	0.126792
H	0.5541138833244516 0.6169347395290858 0.0150472647559615	0.098071
H	0.6109543525117920 0.5545057703796821 0.0243814512850798	0.121200
H	0.7163801655274190 0.4491346643428669 0.0244555961817901	0.106720
H	0.7778137138555166 0.3912479478398515 0.0242328962075101	0.115821
H	0.9450524543848087 0.2279785348834288 0.0148394543953949	0.097185
H	0.8852452458766337 0.2871550820327222 0.0241160357246256	0.126790
Co	0.5000000000000000 0.6728418130811646 0.7520987182462783	0.652095
Co	-0.0000000000000000 0.1728417800811656 0.7520987182462783	0.652095
Co	0.5000000000000000 0.3271582199188343 0.2520987022462766	0.652095
Co	-0.0000000000000000 0.8271581869188354 0.2520987022462766	0.652095
V	0.5000000000000000 0.6729080792654064 0.2286863606412158	2.227513
V	-0.0000000000000000 0.1729081282654070 0.2286863606412158	2.227513
V	0.5000000000000000 0.3270918557345989 0.7286863766412169	2.227512
V	-0.0000000000000000 0.8270919207345936 0.7286863766412170	2.227512
F	0.5000000000000000 0.7361609896667658 0.2556988057218911	-0.578157
F	0.5000000000000000 0.6096938437431957 0.2573349688433897	-0.575937
F	-0.0000000000000000 0.2361609566667665 0.2556988057218911	-0.578157
F	-0.0000000000000000 0.1096938517431963 0.2573349688433897	-0.575937
F	0.5000000000000000 0.2638390273332321 0.7556988217218930	-0.578159
F	0.5000000000000000 0.3903061232568051 0.7573349848433915	-0.575934
F	-0.0000000000000000 0.7638390103332342 0.7556988217218930	-0.578159
F	-0.0000000000000000 0.8903061562568043 0.7573349848433915	-0.575935
F	0.5613727700860476 0.6728322036744416 0.2547525199184145	-0.580379
F	0.0613727620860468 0.1728321866744439 0.2547525199184145	-0.580380
F	0.4386272299139526 0.3271677963255579 0.7547525359184162	-0.580379
F	0.9386272299139524 0.8271677963255584 0.7547525359184162	-0.580378
F	0.4386272299139526 0.6728322036744416 0.2547525199184145	-0.580380
F	0.9386272299139524 0.1728321866744439 0.2547525199184145	-0.580379
F	0.5613727700860476 0.3271677963255579 0.7547525359184162	-0.580378
F	0.0613727620860467 0.8271677963255584 0.7547525359184162	-0.580379
F	0.5000000000000000 0.6731660829600855 0.4939735278216897	-0.619948
F	-0.0000000000000000 0.1731660829600856 0.4939735278216897	-0.619948
F	0.5000000000000000 0.3268339170399145 -0.0060264101783121	-0.619949
F	-0.0000000000000000 0.8268339170399145 -0.0060264101783121	-0.619949
O	0.5000000000000000 0.6728900208793458 0.0167334493746074	-0.821839
O	-0.0000000000000000 0.1728900208793456 0.0167334493746074	-0.821839
O	0.5000000000000000 0.3271099791206544 0.5167334303746094	-0.821839
O	-0.0000000000000000 0.8271099791206542 0.5167334303746094	-0.821839
N	0.5519023812144218 0.7249712798821654 0.7510487461536628	-0.186609
N	0.9488180649550420 0.1199961727578990 0.7510472052789000	-0.186004
N	0.0519024212144179 0.2249712958821665 0.7510487461536628	-0.186607
N	0.4488180329550459 0.6199961487578967 0.7510472052789000	-0.186004
N	0.4480975867855829 0.2750287041178333 0.2510487301536620	-0.186606
N	0.0511819630449537 0.8800038512421033 0.2510471892788982	-0.186006
N	0.9480976187855782 0.7750287201178346 0.2510487301536620	-0.186607
N	0.5511819350449580 0.3800038182421039 0.2510471892788982	-0.186007
N	0.4480975867855829 0.7249712798821654 0.7510487461536628	-0.186608
N	0.0511819630449537 0.1199961727578990 0.7510472052789000	-0.186004
N	0.9480976187855782 0.2249712958821665 0.7510487461536628	-0.186609
N	0.5511819350449580 0.6199961487578967 0.7510472052789000	-0.186004
N	0.5519023812144218 0.2750287041178333 0.2510487301536620	-0.186607
N	0.9488180649550420 0.8800038512421033 0.2510471892788982	-0.186006
N	0.0519024212144179 0.7750287201178346 0.2510487301536620	-0.186606
N	0.4488180329550459 0.3800038182421039 0.2510471892788982	-0.186006
	  	
