#======================================================================

# CRYSTAL DATA

#----------------------------------------------------------------------

data_VESTA_phase_1


_pd_phase_name                         VOFFIVE_3_Zn
_cell_length_a                         14.34847
_cell_length_b                         14.34847
_cell_length_c                         7.72482
_cell_angle_alpha                      90
_cell_angle_beta                       90
_cell_angle_gamma                      90
_symmetry_space_group_name_H-M         P 1
_symmetry_Int_Tables_number            1

loop_
_symmetry_equiv_pos_as_xyz
   x, y, z

loop_
   _atom_site_label
   _atom_site_fract_x
   _atom_site_fract_y
   _atom_site_fract_z
   _atom_site_charge
C	0.2713604391705514 0.4515117179427822 0.6433008926693915	0.063778
C	0.2286395438294510 0.0484882870572218 0.6433008926693915	0.063777
C	0.2290191111077610 0.4514030754445112 0.3558992281247390	0.064134
C	0.2709808718922411 0.0485969295554929 0.3558992281247390	0.064134
C	0.0485969295554929 0.2709808718922411 0.3558992281247390	0.064134
C	0.4514030754445112 0.2290191111077610 0.3558992281247390	0.064135
C	0.4515117179427822 0.2713604391705514 0.6433008926693915	0.063780
C	0.0484882870572218 0.2286395438294510 0.6433008926693915	0.063779
C	0.9515117519427778 0.2286395438294510 0.6433008926693915	0.063787
C	0.5484882480572222 0.2713604391705514 0.6433008926693915	0.063787
C	0.5485968905554931 0.2290191111077610 0.3558992281247390	0.064143
C	0.9514031094445069 0.2709808718922411 0.3558992281247390	0.064143
C	0.7290190941077558 0.0485969295554929 0.3558992281247390	0.064135
C	0.7709809058922442 0.4514030754445112 0.3558992281247390	0.064135
C	0.7713604731705540 0.0484882870572218 0.6433008926693915	0.063780
C	0.7286395268294460 0.4515117179427822 0.6433008926693915	0.063780
C	0.4515117179427822 0.7286395268294460 0.6433008926693915	0.063778
C	0.0484882870572218 0.7713604731705540 0.6433008926693915	0.063778
C	0.0485969295554929 0.7290190941077558 0.3558992281247390	0.064134
C	0.4514030754445112 0.7709809058922442 0.3558992281247390	0.064134
C	0.2290191111077610 0.5485968905554931 0.3558992281247390	0.064143
C	0.2709808718922411 0.9514031094445069 0.3558992281247390	0.064143
C	0.2713604391705514 0.5484882480572222 0.6433008926693915	0.063788
C	0.2286395438294510 0.9515117519427778 0.6433008926693915	0.063788
C	0.7713604731705540 0.9515117519427778 0.6433008926693915	0.063787
C	0.7286395268294460 0.5484882480572222 0.6433008926693915	0.063787
C	0.7290190941077558 0.9514031094445069 0.3558992281247390	0.064143
C	0.7709809058922442 0.5485968905554931 0.3558992281247390	0.064143
C	0.5485968905554931 0.7709809058922442 0.3558992281247390	0.064143
C	0.9514031094445069 0.7290190941077558 0.3558992281247390	0.064143
C	0.9515117519427778 0.7713604731705540 0.6433008926693915	0.063788
C	0.5484882480572222 0.7286395268294460 0.6433008926693915	0.063788
H	0.2882149036340010 0.4130774243691067 0.7606505543305683	0.106322
H	0.2117851133660039 0.0869225846308904 0.7606505543305683	0.106322
H	0.2124594940422642 0.4123309854140940 0.2388761361394659	0.115021
H	0.2875405229577406 0.0876690235859031 0.2388761361394659	0.115021
H	0.0876690235859031 0.2875405229577406 0.2388761361394659	0.115020
H	0.4123309854140940 0.2124594940422642 0.2388761361394659	0.115020
H	0.4130774243691067 0.2882149036340010 0.7606505543305683	0.106321
H	0.0869225846308904 0.2117851133660039 0.7606505543305683	0.106321
H	0.9130773903691111 0.2117851133660039 0.7606505543305683	0.106319
H	0.5869226096308889 0.2882149036340010 0.7606505543305683	0.106319
H	0.5876690485859019 0.2124594940422642 0.2388761361394659	0.115019
H	0.9123309514140981 0.2875405229577406 0.2388761361394659	0.115019
H	0.7124594430422636 0.0876690235859031 0.2388761361394659	0.115020
H	0.7875405569577364 0.4123309854140940 0.2388761361394659	0.115020
H	0.7882149376339966 0.0869225846308905 0.7606505543305683	0.106321
H	0.7117850623660034 0.4130774243691067 0.7606505543305683	0.106321
H	0.4130774243691067 0.7117850623660034 0.7606505543305683	0.106322
H	0.0869225846308904 0.7882149376339966 0.7606505543305683	0.106322
H	0.0876690235859031 0.7124594430422636 0.2388761361394659	0.115021
H	0.4123309854140940 0.7875405569577364 0.2388761361394659	0.115021
H	0.2124594940422642 0.5876690485859019 0.2388761361394659	0.115018
H	0.2875405229577406 0.9123309514140981 0.2388761361394659	0.115018
H	0.2882149036340010 0.5869226096308889 0.7606505543305683	0.106319
H	0.2117851133660039 0.9130773903691111 0.7606505543305683	0.106319
H	0.7882149376339966 0.9130773903691111 0.7606505543305683	0.106319
H	0.7117850623660034 0.5869226096308889 0.7606505543305683	0.106319
H	0.7124594430422636 0.9123309514140981 0.2388761361394659	0.115019
H	0.7875405569577364 0.5876690485859019 0.2388761361394659	0.115019
H	0.5876690485859019 0.7875405569577364 0.2388761361394659	0.115018
H	0.9123309514140981 0.7124594430422636 0.2388761361394659	0.115018
H	0.9130773903691111 0.7882149376339966 0.7606505543305683	0.106319
H	0.5869226096308889 0.7117850623660034 0.7606505543305683	0.106319
Zn	0.2500000000000000 0.2500000000000000 0.5001503326294992	0.775549
Zn	0.7500000340000028 0.2500000000000000 0.5001503326294992	0.775550
Zn	0.2500000000000000 0.7500000340000028 0.5001503326294992	0.775550
Zn	0.7500000340000028 0.7500000340000028 0.5001503326294992	0.775550
V	0.2500000000000000 0.2500000000000000 -0.0211358109991488	2.246202
V	0.7500000340000028 0.2500000000000000 -0.0211358109991488	2.246205
V	0.2500000000000000 0.7500000340000028 -0.0211358109991488	2.246205
V	0.7500000340000028 0.7500000340000028 -0.0211358109991488	2.246208
O	0.2500000000000000 0.2500000000000000 0.7637184879024856	-0.835669
O	0.7500000340000028 0.2500000000000000 0.7637184879024856	-0.835669
O	0.2500000000000000 0.7500000340000028 0.7637184879024856	-0.835669
O	0.7500000340000028 0.7500000340000028 0.7637184879024856	-0.835670
F	0.2500000000000000 0.2500000000000000 0.2419317051923317	-0.617782
F	0.3404204762799181 0.3404204762799181 0.0037382871764901	-0.558791
F	0.1595795237200821 0.1595795237200821 0.0037382871764901	-0.558791
F	0.1596255632642082 0.3403744367357918 0.0070438472327295	-0.557975
F	0.3403744367357918 0.1596255632642082 0.0070438472327295	-0.557975
F	0.7500000340000028 0.2500000000000000 0.2419317051923317	-0.617782
F	0.8403744027357960 0.3403744367357918 0.0070438472327295	-0.557975
F	0.6596255972642040 0.1596255632642082 0.0070438472327295	-0.557975
F	0.6595795577200776 0.3404204762799181 0.0037382871764901	-0.558791
F	0.8404204422799224 0.1595795237200821 0.0037382871764901	-0.558791
F	0.2500000000000000 0.7500000340000028 0.2419317051923317	-0.617782
F	0.3403744367357918 0.8403744027357960 0.0070438472327295	-0.557975
F	0.1596255632642082 0.6596255972642040 0.0070438472327295	-0.557975
F	0.1595795237200821 0.8404204422799224 0.0037382871764901	-0.558791
F	0.3404204762799181 0.6595795577200776 0.0037382871764901	-0.558791
F	0.7500000340000028 0.7500000340000028 0.2419317051923317	-0.617782
F	0.8404204422799224 0.8404204422799224 0.0037382871764901	-0.558790
F	0.6595795577200776 0.6595795577200776 0.0037382871764901	-0.558790
F	0.6596255972642040 0.8403744027357960 0.0070438472327295	-0.557974
F	0.8403744027357960 0.6596255972642040 0.0070438472327295	-0.557974
N	0.4031015634940472 0.2500867439421521 0.4997159468499396	-0.182954
N	0.0968984285059521 0.2499132560578480 0.4997159468499396	-0.182954
N	0.2500867439421521 0.4031015634940472 0.4997159468499396	-0.182954
N	0.2499132560578480 0.0968984285059521 0.4997159468499396	-0.182954
N	0.9031015974940503 0.2499132560578480 0.4997159468499396	-0.182955
N	0.5968984025059497 0.2500867439421521 0.4997159468499396	-0.182955
N	0.7499132900578508 0.4031015634940472 0.4997159468499396	-0.182954
N	0.7500867779421548 0.0968984285059521 0.4997159468499396	-0.182954
N	0.4031015634940472 0.7499132900578508 0.4997159468499396	-0.182953
N	0.0968984285059521 0.7500867779421548 0.4997159468499396	-0.182953
N	0.2499132560578480 0.9031015974940503 0.4997159468499396	-0.182956
N	0.2500867439421521 0.5968984025059497 0.4997159468499396	-0.182956
N	0.9031015974940503 0.7500867779421548 0.4997159468499396	-0.182956
N	0.5968984025059497 0.7499132900578508 0.4997159468499396	-0.182955
N	0.7500867779421548 0.9031015974940503 0.4997159468499396	-0.182956
N	0.7499132900578508 0.5968984025059497 0.4997159468499396	-0.182956
	  	
