#======================================================================

# CRYSTAL DATA

#----------------------------------------------------------------------

data_VESTA_phase_1


_pd_phase_name                         VOFFIVE_1_Fe
_cell_length_a                         11.49817
_cell_length_b                         11.49817
_cell_length_c                         7.72772
_cell_angle_alpha                      90
_cell_angle_beta                       90
_cell_angle_gamma                      90
_symmetry_space_group_name_H-M         P 1
_symmetry_Int_Tables_number            1

loop_
_symmetry_equiv_pos_as_xyz
   x, y, z

loop_
   _atom_site_label
   _atom_site_fract_x
   _atom_site_fract_y
   _atom_site_fract_z
   _atom_site_charge
C	0.2485074687525871 0.4574944247986202 0.3646502185429139	0.106151
C	0.1275044464316292 0.4565475063299957 0.3587327080312408	-0.178285
C	0.7514925742474134 0.5425056182013795 0.3646502185429139	0.106208
C	0.8724954995683668 0.5434524936700041 0.3587327080312408	-0.178318
C	0.5425056182013795 0.2485074687525871 0.3646502185429139	0.106151
C	0.5434524936700041 0.1275044464316292 0.3587327080312408	-0.178286
C	0.4574944247986202 0.7514925742474134 0.3646502185429139	0.106208
C	0.4565475063299957 0.8724954995683668 0.3587327080312408	-0.178319
C	0.7523870331599730 0.4563034914006062 0.6356144655799481	0.105463
C	0.8733391606935704 0.4558009398024208 0.6406219479516425	-0.179343
C	0.2476130098400273 0.5436965515993941 0.6356144655799481	0.105460
C	0.1266607853064253 0.5441990601975791 0.6406219479516425	-0.179347
C	0.4563034914006062 0.2476130098400273 0.6356144655799481	0.105461
C	0.4558009398024208 0.1266607853064253 0.6406219479516425	-0.179348
C	0.5436965515993941 0.7523870331599730 0.6356144655799481	0.105463
C	0.5441990601975791 0.8733391606935704 0.6406219479516425	-0.179343
C	0.0641930415701493 0.5001932879542180 0.4993704241188850	0.100669
C	0.9358069794298562 0.4998067120457815 0.4993704241188850	0.100662
C	0.4998067120457815 0.0641930415701493 0.4993704241188850	0.100669
C	0.5001932879542180 0.9358069794298562 0.4993704241188850	0.100662
H	0.3002405844914995 0.4237695728994456 0.2573860068404134	0.102775
H	0.0829059163373149 0.4199240789491237 0.2467629108462750	0.118964
H	0.6997593945084951 0.5762304271005542 0.2573860068404134	0.102765
H	0.9170940676626838 0.5800759210508765 0.2467629108462750	0.118965
H	0.5762304271005542 0.3002405844914995 0.2573860068404134	0.102774
H	0.5800759210508765 0.0829059163373149 0.2467629108462750	0.118966
H	0.4237695728994456 0.6997593945084951 0.2573860068404134	0.102765
H	0.4199240789491237 0.9170940676626838 0.2467629108462750	0.118966
H	0.7016121363543240 0.4218390778081974 0.7432559474478319	0.095947
H	0.9184932085557066 0.4194653090463116 0.7522425016970647	0.119606
H	0.2983878426456708 0.5781609221918026 0.7432559474478319	0.095947
H	0.0815067754442920 0.5805346909536886 0.7522425016970647	0.119606
H	0.4218390778081974 0.2983878426456708 0.7432559474478319	0.095947
H	0.4194653090463116 0.0815067754442920 0.7522425016970647	0.119608
H	0.5781609221918026 0.7016121363543240 0.7432559474478319	0.095947
H	0.5805346909536886 0.9184932085557066 0.7522425016970647	0.119607
Fe	0.5000000000000000 0.5000000000000000 0.4987241808533631	0.829315
V	0.5000000000000000 0.5000000000000000 -0.0225001612672084	2.256858
O	0.5000000000000000 0.5000000000000000 0.7627137268796471	-0.815298
F	0.5000000000000000 0.5000000000000000 0.2437920058481536	-0.599333
F	0.3881690627888035 0.3860872791246935 0.0050942825488092	-0.570020
F	0.6118309802111965 0.6139127638753067 0.0050942825488092	-0.570020
F	0.6139127638753067 0.3881690627888035 0.0050942825488092	-0.570020
F	0.3860872791246935 0.6118309802111965 0.0050942825488092	-0.570020
N	0.3078233849388946 0.5006087304238801 0.5005861773164858	-0.239806
N	0.6921766580611054 0.4993912695761200 0.5005861773164858	-0.239821
N	0.4993912695761200 0.3078233849388946 0.5005861773164858	-0.239806
N	0.5006087304238801 0.6921766580611054 0.5005861773164858	-0.239821
	  	
