#======================================================================

# CRYSTAL DATA

#----------------------------------------------------------------------

data_VESTA_phase_1


_pd_phase_name                         VOFFIVE_3_Cu
_cell_length_a                         13.83090
_cell_length_b                         13.83090
_cell_length_c                         7.89230
_cell_angle_alpha                      90
_cell_angle_beta                       90
_cell_angle_gamma                      90
_symmetry_space_group_name_H-M         P 1
_symmetry_Int_Tables_number            1

loop_
_symmetry_equiv_pos_as_xyz
   x, y, z

loop_
   _atom_site_label
   _atom_site_fract_x
   _atom_site_fract_y
   _atom_site_fract_z
   _atom_site_charge
C	0.2711862302934159 0.4496931106182253 0.6406917951102572	0.066489
C	0.2288137527065863 0.0503068943817788 0.6406917951102572	0.066489
C	0.2295656190352659 0.4495362690644349 0.3577309084635742	0.069987
C	0.2704343639647364 0.0504637359355691 0.3577309084635742	0.069987
C	0.0504637359355691 0.2704343639647364 0.3577309084635742	0.069991
C	0.4495362690644349 0.2295656190352659 0.3577309084635742	0.069991
C	0.4496931106182253 0.2711862302934159 0.6406917951102572	0.066501
C	0.0503068943817788 0.2288137527065863 0.6406917951102572	0.066501
C	0.9496931446182210 0.2288137527065863 0.6406917951102572	0.066515
C	0.5503068553817790 0.2711862302934159 0.6406917951102572	0.066515
C	0.5504636969355693 0.2295656190352659 0.3577309084635742	0.070010
C	0.9495363030644307 0.2704343639647364 0.3577309084635742	0.070010
C	0.7295656020352609 0.0504637359355691 0.3577309084635742	0.069991
C	0.7704343979647391 0.4495362690644349 0.3577309084635742	0.069991
C	0.7711862642934186 0.0503068943817788 0.6406917951102572	0.066501
C	0.7288137357065814 0.4496931106182253 0.6406917951102572	0.066501
C	0.4496931106182253 0.7288137357065814 0.6406917951102572	0.066490
C	0.0503068943817788 0.7711862642934186 0.6406917951102572	0.066490
C	0.0504637359355691 0.7295656020352609 0.3577309084635742	0.069988
C	0.4495362690644349 0.7704343979647391 0.3577309084635742	0.069988
C	0.2295656190352659 0.5504636969355693 0.3577309084635742	0.070014
C	0.2704343639647364 0.9495363030644307 0.3577309084635742	0.070014
C	0.2711862302934159 0.5503068553817790 0.6406917951102572	0.066526
C	0.2288137527065863 0.9496931446182210 0.6406917951102572	0.066526
C	0.7711862642934186 0.9496931446182210 0.6406917951102572	0.066515
C	0.7288137357065814 0.5503068553817790 0.6406917951102572	0.066515
C	0.7295656020352609 0.9495363030644307 0.3577309084635742	0.070010
C	0.7704343979647391 0.5504636969355693 0.3577309084635742	0.070010
C	0.5504636969355693 0.7704343979647391 0.3577309084635742	0.070014
C	0.9495363030644307 0.7295656020352609 0.3577309084635742	0.070014
C	0.9496931446182210 0.7711862642934186 0.6406917951102572	0.066526
C	0.5503068553817790 0.7288137357065814 0.6406917951102572	0.066526
H	0.2874938953718041 0.4096782657622354 0.7560531881798430	0.115663
H	0.2125061216282011 0.0903217432377619 0.7560531881798430	0.115663
H	0.2136190585032046 0.4088424913283894 0.2427190323471084	0.122326
H	0.2863809584968003 0.0911575176716076 0.2427190323471084	0.122326
H	0.0911575176716076 0.2863809584968003 0.2427190323471084	0.122325
H	0.4088424913283894 0.2136190585032046 0.2427190323471084	0.122325
H	0.4096782657622354 0.2874938953718041 0.7560531881798430	0.115661
H	0.0903217432377619 0.2125061216282011 0.7560531881798430	0.115661
H	0.9096782317622396 0.2125061216282011 0.7560531881798430	0.115657
H	0.5903217682377604 0.2874938953718041 0.7560531881798430	0.115657
H	0.5911575426716060 0.2136190585032046 0.2427190323471084	0.122321
H	0.9088424573283940 0.2863809584968003 0.2427190323471084	0.122321
H	0.7136190075032036 0.0911575176716076 0.2427190323471084	0.122325
H	0.7863809924967964 0.4088424913283894 0.2427190323471084	0.122325
H	0.7874939293717995 0.0903217432377619 0.7560531881798430	0.115661
H	0.7125060706282005 0.4096782657622354 0.7560531881798430	0.115661
H	0.4096782657622354 0.7125060706282005 0.7560531881798430	0.115663
H	0.0903217432377619 0.7874939293717995 0.7560531881798430	0.115663
H	0.0911575176716076 0.7136190075032036 0.2427190323471084	0.122326
H	0.4088424913283894 0.7863809924967964 0.2427190323471084	0.122326
H	0.2136190585032046 0.5911575426716060 0.2427190323471084	0.122320
H	0.2863809584968003 0.9088424573283940 0.2427190323471084	0.122320
H	0.2874938953718041 0.5903217682377604 0.7560531881798430	0.115655
H	0.2125061216282011 0.9096782317622396 0.7560531881798430	0.115655
H	0.7874939293717995 0.9096782317622396 0.7560531881798430	0.115657
H	0.7125060706282005 0.5903217682377604 0.7560531881798430	0.115657
H	0.7136190075032036 0.9088424573283940 0.2427190323471084	0.122321
H	0.7863809924967964 0.5911575426716060 0.2427190323471084	0.122321
H	0.5911575426716060 0.7863809924967964 0.2427190323471084	0.122320
H	0.9088424573283940 0.7136190075032036 0.2427190323471084	0.122320
H	0.9096782317622396 0.7874939293717995 0.7560531881798430	0.115655
H	0.5903217682377604 0.7125060706282005 0.7560531881798430	0.115655
Cu	0.2500000000000000 0.2500000000000000 0.5009779520344958	0.748630
Cu	0.7500000340000028 0.2500000000000000 0.5009779520344958	0.748631
Cu	0.2500000000000000 0.7500000340000028 0.5009779520344958	0.748631
Cu	0.7500000340000028 0.7500000340000028 0.5009779520344958	0.748632
V	0.2500000000000000 0.2500000000000000 -0.0182137590726735	2.250312
V	0.7500000340000028 0.2500000000000000 -0.0182137590726735	2.250311
V	0.2500000000000000 0.7500000340000028 -0.0182137590726735	2.250311
V	0.7500000340000028 0.7500000340000028 -0.0182137590726735	2.250310
O	0.2500000000000000 0.2500000000000000 0.7717393368616930	-0.870359
O	0.7500000340000028 0.2500000000000000 0.7717393368616930	-0.870359
O	0.2500000000000000 0.7500000340000028 0.7717393368616930	-0.870359
O	0.7500000340000028 0.7500000340000028 0.7717393368616930	-0.870359
F	0.2500000000000000 0.2500000000000000 0.2355933429931597	-0.658633
F	0.3444207183711824 0.3444207183711824 0.0022809630207725	-0.566061
F	0.1555792816288176 0.1555792816288176 0.0022809630207725	-0.566062
F	0.1558406948270521 0.3441593051729479 0.0094039493697976	-0.563632
F	0.3441593051729479 0.1558406948270521 0.0094039493697976	-0.563632
F	0.7500000340000028 0.2500000000000000 0.2355933429931598	-0.658633
F	0.8441592711729521 0.3441593051729479 0.0094039493697976	-0.563634
F	0.6558407288270479 0.1558406948270521 0.0094039493697976	-0.563634
F	0.6555793156288133 0.3444207183711824 0.0022809630207725	-0.566064
F	0.8444206843711867 0.1555792816288176 0.0022809630207725	-0.566064
F	0.2500000000000000 0.7500000340000028 0.2355933429931597	-0.658633
F	0.3441593051729479 0.8441592711729521 0.0094039493697976	-0.563634
F	0.1558406948270521 0.6558407288270479 0.0094039493697976	-0.563634
F	0.1555792816288177 0.8444206843711867 0.0022809630207725	-0.566064
F	0.3444207183711824 0.6555793156288133 0.0022809630207725	-0.566064
F	0.7500000340000028 0.7500000340000028 0.2355933429931598	-0.658632
F	0.8444206843711867 0.8444206843711867 0.0022809630207725	-0.566066
F	0.6555793156288133 0.6555793156288133 0.0022809630207725	-0.566066
F	0.6558407288270479 0.8441592711729521 0.0094039493697976	-0.563635
F	0.8441592711729521 0.6558407288270479 0.0094039493697976	-0.563635
N	0.3997582549528904 0.2501745368327508 0.4994384054997692	-0.177127
N	0.1002417370471090 0.2498254631672492 0.4994384054997692	-0.177128
N	0.2501745368327508 0.3997582549528904 0.4994384054997692	-0.177125
N	0.2498254631672492 0.1002417370471090 0.4994384054997692	-0.177125
N	0.8997582889528928 0.2498254631672492 0.4994384054997692	-0.177131
N	0.6002417110471072 0.2501745368327508 0.4994384054997692	-0.177131
N	0.7498254971672521 0.3997582549528904 0.4994384054997692	-0.177127
N	0.7501745708327535 0.1002417370471090 0.4994384054997692	-0.177127
N	0.3997582549528904 0.7498254971672521 0.4994384054997692	-0.177126
N	0.1002417370471090 0.7501745708327535 0.4994384054997692	-0.177126
N	0.2498254631672492 0.8997582889528928 0.4994384054997692	-0.177133
N	0.2501745368327508 0.6002417110471072 0.4994384054997692	-0.177132
N	0.8997582889528928 0.7501745708327535 0.4994384054997692	-0.177133
N	0.6002417110471072 0.7498254971672521 0.4994384054997692	-0.177133
N	0.7501745708327535 0.8997582889528928 0.4994384054997692	-0.177131
N	0.7498254971672521 0.6002417110471072 0.4994384054997692	-0.177130
	  	
