#======================================================================

# CRYSTAL DATA

#----------------------------------------------------------------------

data_VESTA_phase_1


_pd_phase_name                         VOFFIVE_1_Cd
_cell_length_a                         11.72852
_cell_length_b                         11.72852
_cell_length_c                         8.05889
_cell_angle_alpha                      90
_cell_angle_beta                       90
_cell_angle_gamma                      90
_symmetry_space_group_name_H-M         P 1
_symmetry_Int_Tables_number            1

loop_
_symmetry_equiv_pos_as_xyz
   x, y, z

loop_
   _atom_site_label
   _atom_site_fract_x
   _atom_site_fract_y
   _atom_site_fract_z
   _atom_site_charge
C	0.2428867856621614 0.4597740333944799 0.3679480435258388	0.104452
C	0.1243001069250255 0.4583690288402406 0.3632095488689099	-0.174217
C	0.7571132573378386 0.5402260096055204 0.3679480435258388	0.104451
C	0.8756998390749701 0.5416309711597596 0.3632095488689099	-0.174217
C	0.5402260096055204 0.2428867856621614 0.3679480435258388	0.104452
C	0.5416309711597596 0.1243001069250255 0.3632095488689099	-0.174217
C	0.4597740333944799 0.7571132573378386 0.3679480435258388	0.104452
C	0.4583690288402406 0.8756998390749701 0.3632095488689099	-0.174217
C	0.7576077947757142 0.4591297465078056 0.6313837246878350	0.102980
C	0.8761158461473260 0.4580521190556666 0.6360168345173081	-0.175479
C	0.2423922482242856 0.5408702964921945 0.6313837246878350	0.102981
C	0.1238840998526695 0.5419478809443334 0.6360168345173081	-0.175479
C	0.4591297465078056 0.2423922482242856 0.6313837246878350	0.102981
C	0.4580521190556666 0.1238840998526695 0.6360168345173081	-0.175479
C	0.5408702964921945 0.7576077947757142 0.6313837246878350	0.102980
C	0.5419478809443334 0.8761158461473260 0.6360168345173081	-0.175479
C	0.0628381879766262 0.5000686583964886 0.4994553818509582	0.101154
C	0.9371618330233792 0.4999313416035113 0.4994553818509582	0.101154
C	0.4999313416035113 0.0628381879766262 0.4994553818509582	0.101154
C	0.5000686583964886 0.9371618330233792 0.4994553818509582	0.101154
H	0.2941053624749370 0.4286989035806274 0.2639566715384218	0.107505
H	0.0801407405505774 0.4232802001087753 0.2557722388120833	0.121445
H	0.7058946165250580 0.5713010964193724 0.2639566715384218	0.107505
H	0.9198592434494210 0.5767197998912248 0.2557722388120833	0.121445
H	0.5713010964193724 0.2941053624749370 0.2639566715384218	0.107505
H	0.5767197998912248 0.0801407405505774 0.2557722388120833	0.121446
H	0.4286989035806274 0.7058946165250580 0.2639566715384218	0.107505
H	0.4232802001087753 0.9198592434494210 0.2557722388120833	0.121445
H	0.7068353744467643 0.4275662982143747 0.7354892397412964	0.102842
H	0.9205235039516967 0.4231300377828927 0.7433382711305055	0.121482
H	0.2931646045532308 0.5724337017856255 0.7354892397412964	0.102842
H	0.0794764800483019 0.5768699622171071 0.7433382711305055	0.121481
H	0.4275662982143747 0.2931646045532308 0.7354892397412964	0.102842
H	0.4231300377828927 0.0794764800483019 0.7433382711305055	0.121482
H	0.5724337017856255 0.7068353744467643 0.7354892397412964	0.102842
H	0.5768699622171071 0.9205235039516967 0.7433382711305055	0.121482
Cd	0.5000000000000000 0.5000000000000000 0.5013551782288352	0.863529
V	0.5000000000000000 0.5000000000000000 -0.0173251043849696	2.287381
O	0.5000000000000000 0.5000000000000000 0.7772784493075238	-0.833621
F	0.5000000000000000 0.5000000000000000 0.2299315529928379	-0.628191
F	0.3887454506453344 0.3879434080365869 0.0057083243395327	-0.597108
F	0.6112545923546655 0.6120566349634130 0.0057083243395327	-0.597108
F	0.6120566349634130 0.3887454506453344 0.0057083243395327	-0.597108
F	0.3879434080365869 0.6112545923546655 0.0057083243395327	-0.597108
N	0.3003215747839431 0.5004011917520899 0.4999117309512519	-0.237330
N	0.6996784682160565 0.4995988082479104 0.4999117309512519	-0.237330
N	0.4995988082479104 0.3003215747839431 0.4999117309512519	-0.237330
N	0.5004011917520899 0.6996784682160565 0.4999117309512519	-0.237330
	  	
