#======================================================================

# CRYSTAL DATA

#----------------------------------------------------------------------

data_VESTA_phase_1


_pd_phase_name                         VOFFIVE_6_Ni_i
_cell_length_a                         17.68371
_cell_length_b                         17.68371
_cell_length_c                         14.97897
_cell_angle_alpha                      90
_cell_angle_beta                       90
_cell_angle_gamma                      90
_symmetry_space_group_name_H-M         P 1
_symmetry_Int_Tables_number            1

loop_
_symmetry_equiv_pos_as_xyz
   x, y, z

loop_
   _atom_site_label
   _atom_site_fract_x
   _atom_site_fract_y
   _atom_site_fract_z
   _atom_site_charge
N	0.2436279562656853 0.1321498713142847 0.1281603513140563	-0.221765
N	0.2563720437343148 0.3678501416857199 0.1281603513140563	-0.221765
N	0.3678501416857199 0.2436279562656853 0.1281603513140563	-0.221765
N	0.1321498713142847 0.2563720437343148 0.1281603513140563	-0.221765
N	0.7557965787151265 0.6321001468476591 0.3719513682426220	-0.223710
N	0.7442034212848735 0.8678998531523409 0.3719513682426220	-0.223709
N	0.6321001468476591 0.7442034212848735 0.3719513682426220	-0.223711
N	0.8678998531523409 0.7557965787151265 0.3719513682426220	-0.223709
N	0.7557965787151265 0.8678998531523409 0.8719513682426221	-0.223711
N	0.7442034212848735 0.6321001468476591 0.8719513682426221	-0.223712
N	0.6321001468476592 0.7557965787151265 0.8719513682426221	-0.223712
N	0.8678998531523409 0.7442034212848735 0.8719513682426221	-0.223711
N	0.2436279562656853 0.3678501416857199 0.6281603513140565	-0.221766
N	0.2563720437343148 0.1321498713142847 0.6281603513140565	-0.221765
N	0.3678501416857199 0.2563720437343148 0.6281603513140565	-0.221765
N	0.1321498713142847 0.2436279562656853 0.6281603513140565	-0.221766
C	0.1995547359037559 0.0957626530673844 0.1874277157151320	0.101197
C	0.1912999107975188 0.0176869033512932 0.1867846786430609	-0.183690
C	0.2324613386744657 0.9745255665918607 0.1250276659788692	0.108786
C	0.2795986667380074 0.0131644401611258 0.0650589908716121	-0.181680
C	0.2824471783873987 0.0916772567541911 0.0674419689887766	0.104708
C	0.2264605076348584 0.8914964488407674 0.1236992257441459	0.064108
C	0.2910654268901988 0.8473258623666207 0.1209266047677807	-0.174720
C	0.2865656428216976 0.7676026180905480 0.1221019088182074	0.086360
C	0.1478643864730483 0.7786733949078840 0.1247043067851993	-0.122477
C	0.1542089366756434 0.8561647396950205 0.1266955655765996	-0.137029
C	0.3004452770962487 0.4042373269326140 0.1874277157151320	0.101197
C	0.3087001022024858 0.4823131066487006 0.1867846786430609	-0.183690
C	0.2675386613255343 0.5254744334081393 0.1250276659788692	0.108785
C	0.2204013332619926 0.4868355748388719 0.0650589908716121	-0.181679
C	0.2175528216126013 0.4083227362458046 0.0674419689887766	0.104709
C	0.2735394923651416 0.6085035511592326 0.1236992257441459	0.064108
C	0.2089345601098036 0.6526741376333793 0.1209266047677807	-0.174721
C	0.2134343571783024 0.7323973819094520 0.1221019088182074	0.086356
C	0.3521356135269517 0.7213266050921160 0.1247043067851993	-0.122479
C	0.3457910633243565 0.6438352603049795 0.1266955655765996	-0.137029
C	0.4042373269326140 0.1995547359037559 0.1874277157151320	0.101197
C	0.4823131066487006 0.1912999107975188 0.1867846786430609	-0.183689
C	0.5254744334081393 0.2324613386744657 0.1250276659788692	0.108786
C	0.4868355748388719 0.2795986667380074 0.0650589908716121	-0.181680
C	0.4083227362458046 0.2824471783873987 0.0674419689887766	0.104709
C	0.6085035511592326 0.2264605076348584 0.1236992257441459	0.064108
C	0.6526741376333793 0.2910654268901988 0.1209266047677807	-0.174721
C	0.7323973819094520 0.2865656428216976 0.1221019088182074	0.086360
C	0.7213266050921160 0.1478643864730483 0.1247043067851993	-0.122477
C	0.6438352603049795 0.1542089366756434 0.1266955655765996	-0.137029
C	0.0957626530673844 0.3004452770962487 0.1874277157151320	0.101197
C	0.0176869033512932 0.3087001022024858 0.1867846786430609	-0.183690
C	0.9745255665918607 0.2675386613255343 0.1250276659788692	0.108785
C	0.0131644401611258 0.2204013332619926 0.0650589908716121	-0.181679
C	0.0916772567541911 0.2175528216126013 0.0674419689887766	0.104708
C	0.8914964488407674 0.2735394923651416 0.1236992257441459	0.064108
C	0.8473258623666207 0.2089345601098036 0.1209266047677807	-0.174720
C	0.7676026180905480 0.2134343571783024 0.1221019088182074	0.086356
C	0.7786733949078840 0.3521356135269517 0.1247043067851993	-0.122479
C	0.8561647396950205 0.3457910633243566 0.1266955655765996	-0.137029
C	0.7999867530523674 0.5960635237281217 0.3124445822027564	0.101898
C	0.8085897309614126 0.5179693434081305 0.3131054948377134	-0.183524
C	0.7677125928128622 0.4745230230967475 0.3748466530922756	0.111033
C	0.7203160859814519 0.5128472571507139 0.4348112543417160	-0.184277
C	0.7170822051561107 0.5912743847073549 0.4323734344306508	0.106309
C	0.7736669657658529 0.3914950026185887 0.3761361612030112	0.060860
C	0.7089949050631056 0.3473733195740168 0.3790205529839130	-0.171855
C	0.7134556441940113 0.2676258325294379 0.3779272071518584	0.084104
C	0.8521588961394287 0.2786011499502202 0.3753540698588342	-0.121920
C	0.8458601042319265 0.3561236121263216 0.3732499471600887	-0.136612
C	0.7000132469476326 0.9039364762718783 0.3124445822027564	0.101899
C	0.6914102690385874 0.9820306565918695 0.3131054948377134	-0.183523
C	0.7322874071871378 0.0254769989032541 0.3748466530922756	0.111028
C	0.7796839140185481 0.9871527958492869 0.4348112543417160	-0.184267
C	0.7829177948438893 0.9087256152926451 0.4323734344306508	0.106302
C	0.7263330342341471 0.1085049973814114 0.3761361612030112	0.060861
C	0.7910050949368944 0.1526266674259857 0.3790205529839130	-0.171854
C	0.7865443558059887 0.2323741674705621 0.3779272071518584	0.084101
C	0.6478411038605713 0.2213988500497798 0.3753540698588342	-0.121921
C	0.6541398957680735 0.1438763618736763 0.3732499471600887	-0.136613
C	0.5960635237281217 0.7000132469476326 0.3124445822027564	0.101899
C	0.5179693434081305 0.6914102690385874 0.3131054948377134	-0.183523
C	0.4745230230967475 0.7322874071871378 0.3748466530922756	0.111033
C	0.5128472571507139 0.7796839140185481 0.4348112543417160	-0.184277
C	0.5912743847073549 0.7829177948438893 0.4323734344306508	0.106310
C	0.3914950026185887 0.7263330342341471 0.3761361612030112	0.060861
C	0.3473733195740168 0.7910050949368944 0.3790205529839130	-0.171855
C	0.2676258325294379 0.7865443558059887 0.3779272071518584	0.084104
C	0.2786011499502202 0.6478411038605713 0.3753540698588342	-0.121920
C	0.3561236121263216 0.6541398957680735 0.3732499471600887	-0.136613
C	0.9039364762718783 0.7999867530523674 0.3124445822027564	0.101899
C	0.9820306565918695 0.8085897309614126 0.3131054948377134	-0.183523
C	0.0254769989032541 0.7677125928128622 0.3748466530922756	0.111029
C	0.9871527958492869 0.7203160859814519 0.4348112543417160	-0.184266
C	0.9087256152926451 0.7170822051561107 0.4323734344306508	0.106302
C	0.1085049973814114 0.7736669657658529 0.3761361612030112	0.060861
C	0.1526266674259857 0.7089949050631056 0.3790205529839130	-0.171855
C	0.2323741674705621 0.7134556441940113 0.3779272071518584	0.084101
C	0.2213988500497798 0.8521588961394287 0.3753540698588342	-0.121921
C	0.1438763618736763 0.8458601042319265 0.3732499471600887	-0.136613
C	0.7999867530523674 0.9039364762718783 0.8124445502027537	0.101904
C	0.8085897309614126 0.9820306565918695 0.8131055268377090	-0.183487
C	0.7677125928128622 0.0254769989032541 0.8748466530922755	0.111050
C	0.7203160859814519 0.9871527958492869 0.9348112863417112	-0.184271
C	0.7170822051561107 0.9087256152926451 0.9323734024306486	0.106304
C	0.7736669657658529 0.1085049973814114 0.8761360972030130	0.060856
C	0.7089949050631056 0.1526266674259857 0.8790205849839156	-0.171854
C	0.7134556441940113 0.2323741674705621 0.8779271441518635	0.084104
C	0.8521588961394287 0.2213988500497798 0.8753540698588340	-0.121919
C	0.8458601042319265 0.1438763618736763 0.8732499471600886	-0.136611
C	0.7000132469476326 0.5960635237281217 0.8124445502027537	0.101904
C	0.6914102690385874 0.5179693434081305 0.8131055268377090	-0.183487
C	0.7322874071871378 0.4745230230967475 0.8748466530922755	0.111055
C	0.7796839140185481 0.5128472571507139 0.9348112863417112	-0.184282
C	0.7829177948438893 0.5912743847073549 0.9323734024306486	0.106310
C	0.7263330342341471 0.3914950026185887 0.8761360972030130	0.060856
C	0.7910050949368944 0.3473733195740168 0.8790205849839156	-0.171854
C	0.7865443558059887 0.2676258325294379 0.8779271441518635	0.084101
C	0.6478411038605713 0.2786011499502202 0.8753540698588340	-0.121922
C	0.6541398957680735 0.3561236121263216 0.8732499471600886	-0.136611
C	0.5960635237281217 0.7999867530523674 0.8124445502027537	0.101905
C	0.5179693434081305 0.8085897309614126 0.8131055268377090	-0.183487
C	0.4745230230967475 0.7677125928128622 0.8748466530922755	0.111055
C	0.5128472571507139 0.7203160859814519 0.9348112863417112	-0.184281
C	0.5912743847073549 0.7170822051561107 0.9323734024306486	0.106311
C	0.3914950026185887 0.7736669657658529 0.8761360972030130	0.060856
C	0.3473733195740168 0.7089949050631056 0.8790205849839156	-0.171854
C	0.2676258325294379 0.7134556441940113 0.8779271441518635	0.084104
C	0.2786011499502202 0.8521588961394287 0.8753540698588340	-0.121919
C	0.3561236121263216 0.8458601042319265 0.8732499471600886	-0.136611
C	0.9039364762718783 0.7000132469476326 0.8124445502027537	0.101904
C	0.9820306565918695 0.6914102690385874 0.8131055268377090	-0.183486
C	0.0254769989032541 0.7322874071871378 0.8748466530922755	0.111050
C	0.9871527958492869 0.7796839140185481 0.9348112863417112	-0.184271
C	0.9087256152926451 0.7829177948438893 0.9323734024306486	0.106304
C	0.1085049973814114 0.7263330342341471 0.8761360972030130	0.060856
C	0.1526266674259857 0.7910050949368944 0.8790205849839156	-0.171854
C	0.2323741674705621 0.7865443558059887 0.8779271441518635	0.084101
C	0.2213988500497798 0.6478411038605713 0.8753540698588340	-0.121922
C	0.1438763618736763 0.6541398957680735 0.8732499471600886	-0.136611
C	0.1995547359037559 0.4042373269326140 0.6874277157151317	0.101197
C	0.1912999107975188 0.4823131066487006 0.6867846466430650	-0.183690
C	0.2324613386744657 0.5254744334081393 0.6250276579788684	0.108785
C	0.2795986667380074 0.4868355748388719 0.5650589548716164	-0.181680
C	0.2824471783873987 0.4083227362458046 0.5674420009887791	0.104708
C	0.2264605076348584 0.6085035511592326 0.6236992817441434	0.064108
C	0.2910654268901988 0.6526741376333793 0.6209265887677797	-0.174722
C	0.2865656428216976 0.7323973819094520 0.6221019558182080	0.086359
C	0.1478643864730483 0.7213266050921160 0.6247043147852003	-0.122477
C	0.1542089366756434 0.6438352603049795 0.6266955805766046	-0.137030
C	0.3004452770962487 0.0957626530673844 0.6874277157151317	0.101197
C	0.3087001022024858 0.0176869033512932 0.6867846466430650	-0.183691
C	0.2675386613255343 0.9745255665918607 0.6250276579788684	0.108786
C	0.2204013332619926 0.0131644401611258 0.5650589548716164	-0.181679
C	0.2175528216126013 0.0916772567541911 0.5674420009887791	0.104708
C	0.2735394923651416 0.8914964488407674 0.6236992817441434	0.064108
C	0.2089345601098036 0.8473258623666207 0.6209265887677797	-0.174722
C	0.2134343571783024 0.7676026180905480 0.6221019558182080	0.086356
C	0.3521356135269517 0.7786733949078840 0.6247043147852003	-0.122480
C	0.3457910633243566 0.8561647396950205 0.6266955805766046	-0.137029
C	0.4042373269326140 0.3004452770962487 0.6874277157151317	0.101198
C	0.4823131066487006 0.3087001022024858 0.6867846466430650	-0.183690
C	0.5254744334081393 0.2675386613255343 0.6250276579788684	0.108786
C	0.4868355748388719 0.2204013332619926 0.5650589548716164	-0.181679
C	0.4083227362458046 0.2175528216126013 0.5674420009887791	0.104709
C	0.6085035511592326 0.2735394923651416 0.6236992817441434	0.064108
C	0.6526741376333793 0.2089345601098036 0.6209265887677797	-0.174722
C	0.7323973819094520 0.2134343571783024 0.6221019558182080	0.086359
C	0.7213266050921160 0.3521356135269517 0.6247043147852003	-0.122477
C	0.6438352603049795 0.3457910633243566 0.6266955805766046	-0.137030
C	0.0957626530673844 0.1995547359037559 0.6874277157151317	0.101197
C	0.0176869033512932 0.1912999107975188 0.6867846466430650	-0.183690
C	0.9745255665918607 0.2324613386744657 0.6250276579788684	0.108785
C	0.0131644401611258 0.2795986667380074 0.5650589548716164	-0.181680
C	0.0916772567541911 0.2824471783873987 0.5674420009887791	0.104709
C	0.8914964488407674 0.2264605076348584 0.6236992817441434	0.064108
C	0.8473258623666207 0.2910654268901988 0.6209265887677797	-0.174722
C	0.7676026180905480 0.2865656428216976 0.6221019558182080	0.086356
C	0.7786733949078840 0.1478643864730483 0.6247043147852003	-0.122480
C	0.8561647396950205 0.1542089366756434 0.6266955805766046	-0.137029
H	0.1711975132005223 0.1308499118523904 0.2371943976636449	0.101555
H	0.1548138299481559 0.9903409699443200 0.2357349165518310	0.113174
H	0.3120575899947983 0.9821375684260952 0.0151883700306608	0.113366
H	0.3152471500447007 0.1240765210445458 0.0189471931737163	0.104862
H	0.3467086812354934 0.8740693847278623 0.1204130553277518	0.108140
H	0.0923346368143448 0.7516065359441106 0.1255401551512799	0.107526
H	0.1037121229058724 0.8916600895254196 0.1287347038767943	0.097533
H	0.3288024737994801 0.3691501151476083 0.2371943976636449	0.101556
H	0.3451861830518418 0.5096590830556809 0.2357349165518310	0.113174
H	0.1879423970052041 0.5178623775739003 0.0151883700306608	0.113366
H	0.1847528499552993 0.3759234649554530 0.0189471931737163	0.104862
H	0.1532913187645065 0.6259306152721377 0.1204130553277518	0.108140
H	0.4076653431856606 0.7483934640558894 0.1255401551512799	0.107525
H	0.3962878770941275 0.6083399104745804 0.1287347038767943	0.097533
H	0.3691501151476083 0.1711975132005223 0.2371943976636449	0.101556
H	0.5096590830556809 0.1548138299481559 0.2357349165518310	0.113174
H	0.5178623775739003 0.3120575899947983 0.0151883700306608	0.113367
H	0.3759234649554530 0.3152471500447007 0.0189471931737163	0.104862
H	0.6259306152721377 0.3467086812354934 0.1204130553277518	0.108141
H	0.7483934640558894 0.0923346368143448 0.1255401551512799	0.107526
H	0.6083399104745804 0.1037121229058724 0.1287347038767943	0.097534
H	0.1308499118523904 0.3288024737994801 0.2371943976636449	0.101555
H	0.9903409699443200 0.3451861830518418 0.2357349165518310	0.113175
H	0.9821375684260952 0.1879423970052041 0.0151883700306608	0.113367
H	0.1240765210445458 0.1847528499552993 0.0189471931737163	0.104862
H	0.8740693847278623 0.1532913187645065 0.1204130553277518	0.108141
H	0.7516065359441106 0.4076653431856606 0.1255401551512799	0.107525
H	0.8916600895254196 0.3962878770941275 0.1287347038767943	0.097534
H	0.8277154865417344 0.6315203093533475 0.2625454123816616	0.106624
H	0.8451011481823175 0.4907346323018122 0.2640590298205796	0.112977
H	0.6879080015376096 0.4817185177326578 0.4846059116717568	0.114137
H	0.6836539664065662 0.6232162285505353 0.4806910622416313	0.099676
H	0.6533477149130801 0.3740996969327243 0.3795972820620053	0.107710
H	0.9076751171071453 0.2515604727145846 0.3746075703817813	0.107794
H	0.8963458275368694 0.3916236279736004 0.3712850415828259	0.098036
H	0.6722845134582656 0.8684796906466525 0.2625454123816616	0.106624
H	0.6548988518176825 0.0092653326981813 0.2640590298205796	0.112977
H	0.8120919984623904 0.0182815092673480 0.4846059116717568	0.114135
H	0.8163460335934338 0.8767837714494647 0.4806910622416313	0.099677
H	0.8466522850869199 0.1259003030672757 0.3795972820620053	0.107710
H	0.5923248828928547 0.2484395272854152 0.3746075703817813	0.107795
H	0.6036541724631306 0.1083763720263996 0.3712850415828259	0.098037
H	0.6315203093533475 0.6722845134582656 0.2625454123816616	0.106624
H	0.4907346323018122 0.6548988518176825 0.2640590298205796	0.112977
H	0.4817185177326578 0.8120919984623904 0.4846059116717568	0.114138
H	0.6232162285505353 0.8163460335934338 0.4806910622416313	0.099676
H	0.3740996969327243 0.8466522850869199 0.3795972820620053	0.107710
H	0.2515604727145846 0.5923248828928547 0.3746075703817813	0.107794
H	0.3916236279736004 0.6036541724631306 0.3712850415828259	0.098037
H	0.8684796906466525 0.8277154865417344 0.2625454123816616	0.106624
H	0.0092653326981813 0.8451011481823175 0.2640590298205796	0.112978
H	0.0182815092673480 0.6879080015376096 0.4846059116717568	0.114135
H	0.8767837714494647 0.6836539664065662 0.4806910622416313	0.099677
H	0.1259003030672757 0.6533477149130801 0.3795972820620053	0.107711
H	0.2484395272854152 0.9076751171071453 0.3746075703817813	0.107794
H	0.1083763720263996 0.8963458275368694 0.3712850415828259	0.098037
H	0.8277154865417344 0.8684796906466525 0.7625453973816572	0.106622
H	0.8451011481823175 0.0092653326981813 0.7640590458205807	0.112921
H	0.6879080015376096 0.0182815092673480 0.9846059116717569	0.114136
H	0.6836539664065662 0.8767837714494647 0.9806910622416312	0.099677
H	0.6533477149130801 0.1259003030672757 0.8795972510619990	0.107709
H	0.9076751171071453 0.2484395272854152 0.8746075703817814	0.107794
H	0.8963458275368694 0.1083763720263996 0.8712850735828218	0.098037
H	0.6722845134582656 0.6315203093533475 0.7625453973816572	0.106621
H	0.6548988518176825 0.4907346323018122 0.7640590458205807	0.112921
H	0.8120919984623904 0.4817185177326578 0.9846059116717569	0.114139
H	0.8163460335934338 0.6232162285505353 0.9806910622416312	0.099676
H	0.8466522850869199 0.3740996969327243 0.8795972510619990	0.107709
H	0.5923248828928547 0.2515604727145846 0.8746075703817814	0.107795
H	0.6036541724631306 0.3916236279736004 0.8712850735828218	0.098037
H	0.6315203093533475 0.8277154865417344 0.7625453973816572	0.106621
H	0.4907346323018122 0.8451011481823175 0.7640590458205807	0.112921
H	0.4817185177326578 0.6879080015376096 0.9846059116717569	0.114139
H	0.6232162285505353 0.6836539664065662 0.9806910622416312	0.099676
H	0.3740996969327243 0.6533477149130801 0.8795972510619990	0.107710
H	0.2515604727145846 0.9076751171071453 0.8746075703817814	0.107794
H	0.3916236279736004 0.8963458275368694 0.8712850735828218	0.098038
H	0.8684796906466525 0.6722845134582656 0.7625453973816572	0.106622
H	0.0092653326981813 0.6548988518176825 0.7640590458205807	0.112921
H	0.0182815092673480 0.8120919984623904 0.9846059116717569	0.114137
H	0.8767837714494647 0.8163460335934338 0.9806910622416312	0.099677
H	0.1259003030672757 0.8466522850869199 0.8795972510619990	0.107709
H	0.2484395272854152 0.5923248828928547 0.8746075703817814	0.107795
H	0.1083763720263996 0.6036541724631306 0.8712850735828218	0.098038
H	0.1711975132005223 0.3691501151476083 0.7371944126636498	0.101556
H	0.1548138299481559 0.5096590830556809 0.7357349005518294	0.113176
H	0.3120575899947983 0.5178623775739003 0.5151884070306602	0.113368
H	0.3152471500447007 0.3759234649554530 0.5189471791737149	0.104863
H	0.3467086812354934 0.6259306152721377 0.6204130793277538	0.108141
H	0.0923346368143448 0.7483934640558894 0.6255401471512793	0.107525
H	0.1037121229058724 0.6083399104745804 0.6287346878768003	0.097537
H	0.3288024737994801 0.1308499118523904 0.7371944126636498	0.101556
H	0.3451861830518418 0.9903409699443200 0.7357349005518294	0.113176
H	0.1879423970052041 0.9821375684260952 0.5151884070306602	0.113368
H	0.1847528499552993 0.1240765210445458 0.5189471791737149	0.104862
H	0.1532913187645065 0.8740693847278623 0.6204130793277538	0.108142
H	0.4076653431856606 0.7516065359441106 0.6255401471512793	0.107525
H	0.3962878770941275 0.8916600895254196 0.6287346878768003	0.097535
H	0.3691501151476083 0.3288024737994801 0.7371944126636498	0.101556
H	0.5096590830556809 0.3451861830518418 0.7357349005518294	0.113176
H	0.5178623775739003 0.1879423970052041 0.5151884070306602	0.113368
H	0.3759234649554530 0.1847528499552993 0.5189471791737149	0.104863
H	0.6259306152721377 0.1532913187645065 0.6204130793277538	0.108142
H	0.7483934640558894 0.4076653431856606 0.6255401471512793	0.107524
H	0.6083399104745804 0.3962878770941275 0.6287346878768003	0.097537
H	0.1308499118523904 0.1711975132005223 0.7371944126636497	0.101556
H	0.9903409699443200 0.1548138299481559 0.7357349005518294	0.113176
H	0.9821375684260952 0.3120575899947983 0.5151884070306602	0.113368
H	0.1240765210445458 0.3152471500447007 0.5189471791737149	0.104862
H	0.8740693847278623 0.3467086812354934 0.6204130793277538	0.108142
H	0.7516065359441106 0.0923346368143448 0.6255401471512793	0.107526
H	0.8916600895254196 0.1037121229058724 0.6287346878768003	0.097537
F	0.3088276670562440 0.1632751884789420 0.3810727058124837	-0.589025
F	0.1911723329437561 0.3367248115210579 0.3810727058124837	-0.589025
F	0.3367248115210579 0.3088276670562440 0.3810727058124837	-0.589025
F	0.1632751884789420 0.1911723329437561 0.3810727058124837	-0.589025
F	0.6913329275372846 0.6631628982506150 0.1237450742204769	-0.589312
F	0.8086670724627154 0.8368371017493850 0.1237450742204769	-0.589312
F	0.6631628982506150 0.8086670724627154 0.1237450742204769	-0.589312
F	0.8368371017493850 0.6913329275372846 0.1237450742204769	-0.589311
F	0.6913329275372846 0.8368371017493850 0.6237450662204763	-0.589312
F	0.8086670724627154 0.6631628982506150 0.6237450662204763	-0.589311
F	0.6631628982506150 0.6913329275372846 0.6237450662204763	-0.589312
F	0.8368371017493850 0.8086670724627154 0.6237450662204763	-0.589312
F	0.3088276670562440 0.3367248115210579 0.8810727058124838	-0.589025
F	0.1911723329437561 0.1632751884789420 0.8810727058124838	-0.589025
F	0.3367248115210579 0.1911723329437561 0.8810727058124838	-0.589024
F	0.1632751884789420 0.3088276670562440 0.8810727058124838	-0.589025
F	0.2500000000000000 0.2500000000000000 0.5000716311041390	-0.614128
F	0.7500000000000000 0.7500000000000000 0.2431857612190176	-0.613961
F	0.7500000000000000 0.7500000000000000 0.7431857922190165	-0.613961
F	0.2500000000000000 0.2500000000000000 0.0000716631041350	-0.614128
O	0.2500000000000000 0.2500000000000000 0.2591266780361257	-0.829669
O	0.7500000000000000 0.7500000000000000 0.0021497190702406	-0.830429
O	0.7500000000000000 0.7500000000000000 0.5021497240702375	-0.830429
O	0.2500000000000000 0.2500000000000000 0.7591266630361212	-0.829670
Ni	0.2500000000000000 0.2500000000000000 0.1293931234654268	0.759796
Ni	0.7500000000000000 0.7500000000000000 0.3724013455273107	0.761142
Ni	0.7500000000000000 0.7500000000000000 0.8724012815273050	0.761144
Ni	0.2500000000000000 0.2500000000000000 0.6293931714654307	0.759797
V	0.2500000000000000 0.2500000000000000 0.3689127459185950	2.281373
V	0.7500000000000000 0.7500000000000000 0.1119127920201154	2.282356
V	0.7500000000000000 0.7500000000000000 0.6119128080201094	2.282355
V	0.2500000000000000 0.2500000000000000 0.8689127459185947	2.281373
	  	
