#======================================================================

# CRYSTAL DATA

#----------------------------------------------------------------------

data_VESTA_phase_1


_pd_phase_name                         VOFFIVE_4_Fe_i
_cell_length_a                         23.44323
_cell_length_b                         20.41690
_cell_length_c                         9.72415
_cell_angle_alpha                      90
_cell_angle_beta                       90
_cell_angle_gamma                      90
_symmetry_space_group_name_H-M         P 1
_symmetry_Int_Tables_number            1

loop_
_symmetry_equiv_pos_as_xyz
   x, y, z

loop_
   _atom_site_label
   _atom_site_fract_x
   _atom_site_fract_y
   _atom_site_fract_z
   _atom_site_charge
C	0.4167805341942184 0.5963547592082225 0.6291593352200328	0.101065
C	0.3730846814856060 0.5506270004112122 0.6278679399478170	-0.175550
C	0.2772621270570551 0.4489138199546288 0.6277346952760379	-0.118690
C	0.2311382295843190 0.4063474056582937 0.6271080272085257	-0.114897
C	0.1303902389232193 0.3192043556655007 0.6262548170461627	-0.170173
C	0.0841349897420071 0.2769298187807359 0.6285424641178270	0.095094
C	0.9167805761942142 0.0963547592082223 0.6291593352200328	0.101065
C	0.8730847234856096 0.0506269944112118 0.6278679399478170	-0.175550
C	0.7772621480570544 0.9489138659546330 0.6277346952760379	-0.118690
C	0.7311382495843207 0.9063474516582904 0.6271080272085257	-0.114897
C	0.6303902389232190 0.8192043556655004 0.6262548170461627	-0.170173
C	0.5841349847420030 0.7769298657807363 0.6285424641178270	0.095094
C	0.5832194658057822 0.4036452407917777 0.1291592962200327	0.101065
C	0.6269153185143939 0.4493729995887876 0.1278679239478161	-0.175553
C	0.7227378519429456 0.5510861800453708 0.1277347262760365	-0.118690
C	0.7688617504156793 0.5936525943417063 0.1271080732085220	-0.114896
C	0.8696098020767808 0.6807955973344992 0.1262548320461677	-0.170166
C	0.9158650572579934 0.7230701342192637 0.1285424801178280	0.095090
C	0.0832194708057859 0.9036451947917808 0.1291592962200327	0.101067
C	0.1269152975143887 0.9493729535887911 0.1278679239478161	-0.175553
C	0.2227378519429462 0.0510861750453671 0.1277347262760365	-0.118690
C	0.2688617704156809 0.0936525823417124 0.1271080732085220	-0.114896
C	0.3696097610767808 0.1807956443344994 0.1262548320461677	-0.170166
C	0.4158650152579968 0.2230701582192659 0.1285424801178280	0.095092
C	0.5831305656165632 0.5966572547545659 0.8650865581829981	0.089065
C	0.6268888474400021 0.5510035582810483 0.8680914947157017	-0.172958
C	0.7226151403044178 0.4491190089428543 0.8696702070791179	-0.116461
C	0.7687104174434768 0.4065013629881944 0.8711709150152966	-0.114157
C	0.8699803872005661 0.3190075172337406 0.8718027092646234	-0.172544
C	0.9162449409522566 0.2767005314936253 0.8673187002436700	0.080049
C	0.0831305706165669 0.0966572547545661 0.8650865581829981	0.089065
C	0.1268888264399968 0.0510035522810474 0.8680914947157017	-0.172958
C	0.2226151403044176 0.9491190549428582 0.8696702070791179	-0.116461
C	0.2687104374434786 0.9065014089881910 0.8711709150152966	-0.114157
C	0.3699803462005664 0.8190075172337407 0.8718027092646234	-0.172544
C	0.4162448989522597 0.7767005784936254 0.8673187002436700	0.080049
C	0.4168694343834370 0.4033427452454338 0.3650865891829972	0.089057
C	0.3731111525599976 0.4489964417189521 0.3680915567156990	-0.172959
C	0.2773848386955840 0.5508809910571456 0.3696702070791183	-0.116460
C	0.2312895625565213 0.5934986370118057 0.3711708840152970	-0.114159
C	0.1300196537994337 0.6809924357662590 0.3718026472646261	-0.172570
C	0.0837551060477440 0.7232994215063746 0.3673186382436720	0.080054
C	0.9168694763834332 0.9033426992454374 0.3650865891829972	0.089059
C	0.8731111945600014 0.9489963957189550 0.3680915567156990	-0.172958
C	0.7773848596955822 0.0508809860571419 0.3696702070791183	-0.116460
C	0.7312895825565232 0.0934986250118117 0.3711708840152970	-0.114159
C	0.6300196537994336 0.1809924827662592 0.3718026472646261	-0.172570
C	0.5837551010477398 0.2232994455063765 0.3673186382436720	0.080057
C	0.5831305656165632 0.4033427452454338 0.3650865891829972	0.089063
C	0.6268888474400021 0.4489964417189521 0.3680915567156990	-0.172960
C	0.7226151403044178 0.5508809910571456 0.3696702070791183	-0.116460
C	0.7687104174434768 0.5934986370118057 0.3711708840152970	-0.114158
C	0.8699803872005663 0.6809924357662590 0.3718026472646261	-0.172571
C	0.9162449409522566 0.7232994215063746 0.3673186382436720	0.080062
C	0.0831305706165669 0.9033426992454374 0.3650865891829972	0.089066
C	0.1268888264399968 0.9489963957189550 0.3680915567156990	-0.172960
C	0.2226151403044176 0.0508809860571419 0.3696702070791183	-0.116460
C	0.2687104374434786 0.0934986250118117 0.3711708840152970	-0.114158
C	0.3699803462005663 0.1809924827662592 0.3718026472646261	-0.172571
C	0.4162448989522597 0.2232994455063765 0.3673186382436720	0.080065
C	0.4168694343834370 0.5966572547545659 0.8650865581829982	0.089071
C	0.3731111525599976 0.5510035582810483 0.8680914947157017	-0.172959
C	0.2773848386955840 0.4491190089428543 0.8696702070791178	-0.116461
C	0.2312895625565213 0.4065013629881944 0.8711709150152966	-0.114156
C	0.1300196537994337 0.3190075172337406 0.8718027092646234	-0.172545
C	0.0837551060477440 0.2767005314936253 0.8673187002436700	0.080058
C	0.9168694763834332 0.0966572547545661 0.8650865581829982	0.089071
C	0.8731111945600014 0.0510035522810474 0.8680914947157017	-0.172959
C	0.7773848596955822 0.9491190549428582 0.8696702070791178	-0.116461
C	0.7312895825565232 0.9065014089881910 0.8711709150152966	-0.114156
C	0.6300196537994336 0.8190075172337407 0.8718027092646234	-0.172545
C	0.5837551010477398 0.7767005784936254 0.8673187002436700	0.080058
C	0.4167805341942184 0.4036452407917777 0.1291592962200327	0.101073
C	0.3730846814856060 0.4493729995887876 0.1278679239478161	-0.175552
C	0.2772621270570551 0.5510861800453708 0.1277347262760365	-0.118689
C	0.2311382295843190 0.5936525943417063 0.1271080732085220	-0.114895
C	0.1303902389232193 0.6807955973344992 0.1262548320461677	-0.170170
C	0.0841349897420071 0.7230701342192637 0.1285424801178280	0.095095
C	0.9167805761942142 0.9036451947917808 0.1291592962200327	0.101075
C	0.8730847234856096 0.9493729535887911 0.1278679239478161	-0.175552
C	0.7772621480570544 0.0510861750453671 0.1277347262760365	-0.118689
C	0.7311382495843207 0.0936525823417124 0.1271080732085220	-0.114895
C	0.6303902389232190 0.1807956443344994 0.1262548320461677	-0.170170
C	0.5841349847420030 0.2230701582192659 0.1285424801178280	0.095097
C	0.5832194658057822 0.5963547592082225 0.6291593352200328	0.101073
C	0.6269153185143939 0.5506270004112122 0.6278679399478170	-0.175549
C	0.7227378519429456 0.4489138199546288 0.6277346952760379	-0.118689
C	0.7688617504156793 0.4063474056582937 0.6271080272085257	-0.114896
C	0.8696098020767808 0.3192043556655007 0.6262548170461627	-0.170177
C	0.9158650572579934 0.2769298187807359 0.6285424641178270	0.095099
C	0.0832194708057859 0.0963547592082223 0.6291593352200328	0.101073
C	0.1269152975143887 0.0506269944112118 0.6278679399478170	-0.175549
C	0.2227378519429462 0.9489138659546330 0.6277346952760379	-0.118689
C	0.2688617704156809 0.9063474516582904 0.6271080272085257	-0.114896
C	0.3696097610767808 0.8192043556655004 0.6262548170461627	-0.170177
C	0.4158650152579968 0.7769298657807363 0.6285424641178270	0.095099
C	0.3489136956701785 0.5241466427818168 0.7481927394981854	0.112332
C	0.3019000399341429 0.4744624113552163 0.7485317801467273	0.070424
C	0.2056048967559927 0.3846305514873644 0.7493336519924062	0.065794
C	0.1554821340855123 0.3410047210081955 0.7492885115260669	0.097815
C	0.8489137366701789 0.0241466407818166 0.7481927394981854	0.112332
C	0.8019001029341450 0.9744624573552204 0.7485317801467273	0.070424
C	0.7056048967559932 0.8846305514873648 0.7493336519924062	0.065794
C	0.6554821550855103 0.8410047210081952 0.7492885115260669	0.097815
C	0.6510863043298210 0.4758533572181834 0.2481927244981876	0.112324
C	0.6980998970658550 0.5255375426447796 0.2485317651467293	0.070424
C	0.7943951032440068 0.6153694485126352 0.2493336369924088	0.065791
C	0.8445178449144897 0.6589952789918047 0.2492884965260691	0.097827
C	0.1510862943298203 0.9758533102181829 0.2481927244981876	0.112325
C	0.1980999390658517 0.0255375796447793 0.2485317651467293	0.070424
C	0.2943951032440074 0.1153694595126399 0.2493336369924088	0.065791
C	0.3445178659144879 0.1589953019918031 0.2492884965260691	0.097827
C	0.6510863043298210 0.5241466427818168 0.7481927394981854	0.112331
C	0.6980998970658550 0.4744624113552163 0.7485317801467273	0.070423
C	0.7943951032440068 0.3846305514873644 0.7493336519924062	0.065794
C	0.8445178449144897 0.3410047210081955 0.7492885115260669	0.097815
C	0.1510862943298203 0.0241466407818166 0.7481927394981854	0.112331
C	0.1980999390658517 0.9744624573552204 0.7485317801467273	0.070423
C	0.2943951032440074 0.8846305514873648 0.7493336519924062	0.065794
C	0.3445178659144879 0.8410047210081952 0.7492885115260669	0.097815
C	0.3489136956701785 0.4758533572181834 0.2481927244981876	0.112324
C	0.3019000399341429 0.5255375426447796 0.2485317651467293	0.070424
C	0.2056048967559927 0.6153694485126352 0.2493336369924088	0.065791
C	0.1554821340855123 0.6589952789918047 0.2492884965260691	0.097827
C	0.8489137366701789 0.9758533102181829 0.2481927244981876	0.112324
C	0.8019001029341450 0.0255375796447793 0.2485317651467293	0.070424
C	0.7056048967559932 0.1153694595126399 0.2493336369924088	0.065791
C	0.6554821550855103 0.1589953019918031 0.2492884965260691	0.097827
H	0.4349694018688059 0.6159265841784034 0.5342746136783324	0.116586
H	0.3592944036302443 0.5375288134038897 0.5261527373446173	0.102646
H	0.2933638493894442 0.4612632855301216 0.5274647968000652	0.085390
H	0.2151717110011850 0.3903580992017350 0.5274371644161050	0.103700
H	0.1466326408837585 0.3341563428633924 0.5262828470299307	0.118529
H	0.0641370303595822 0.2582990519545277 0.5348995373170397	0.116431
H	0.9349694018688061 0.1159265611784049 0.5342746136783324	0.116586
H	0.8592944036302445 0.0375288334038840 0.5261527373446173	0.102646
H	0.7933637873894467 0.9612632855301213 0.5274647968000652	0.085390
H	0.7151716900011866 0.8903581462017354 0.5274371644161050	0.103700
H	0.6466326408837585 0.8341563658633908 0.5262828470299307	0.118529
H	0.5641370153595840 0.7582990519545280 0.5348995373170397	0.116431
H	0.5650305981311939 0.3840734388215950 0.0342745836783300	0.116585
H	0.6407055963697555 0.4624711865961104 0.0261527373446167	0.102646
H	0.7066362126105533 0.5387367144698787 0.0274648588000625	0.085390
H	0.7848283099988134 0.6096419007982650 0.0274371334160985	0.103701
H	0.8533673171162380 0.6658436811366095 0.0262828780299297	0.118528
H	0.9358630266404123 0.7417009480454720 0.0348995063170411	0.116430
H	0.0650305831311893 0.8840734618216004 0.0342745836783300	0.116584
H	0.1407056273697547 0.9624711405961136 0.0261527373446167	0.102645
H	0.2066361716105539 0.0387367204698790 0.0274648588000625	0.085390
H	0.2848283099988131 0.1096418887982641 0.0274371334160985	0.103701
H	0.3533673591162417 0.1658436691366086 0.0262828780299297	0.118528
H	0.4358629436404155 0.2417009240454703 0.0348995063170411	0.116431
H	0.5653924518366085 0.6157433926161037 -0.0390749626090117	0.102222
H	0.6405728585086552 0.5382782621005404 -0.0299650485305084	0.102218
H	0.7063091323271881 0.4616304319444499 -0.0303616354732094	0.086071
H	0.7844830044969199 0.3905951578293047 -0.0288492115502496	0.104029
H	0.8541680845810411 0.3337736722106502 -0.0276922403363503	0.118546
H	0.9359740062956429 0.2586141006563390 -0.0383153889426006	0.102118
H	0.0653924368366036 0.1157433696161057 -0.0390749626090117	0.102222
H	0.1405728895086550 0.0382782821005353 -0.0299650485305084	0.102218
H	0.2063090913271882 0.9616304319444490 -0.0303616354732094	0.086071
H	0.2844830044969201 0.8905952048293051 -0.0288492115502496	0.104029
H	0.3541681265810442 0.8337736952106485 -0.0276922403363503	0.118546
H	0.4359739232956466 0.7586141006563386 -0.0383153889426006	0.102118
H	0.4346075481633916 0.3842566303838941 0.4609250583909861	0.102224
H	0.3594271414913442 0.4617217378994591 0.4700349764694901	0.102235
H	0.2936909296728099 0.5383695680555510 0.4696383415267923	0.086071
H	0.2155170165030783 0.6094048421706952 0.4711508324497473	0.104030
H	0.1458318734189559 0.6662263517893519 0.4723077096636455	0.118549
H	0.0640260507043513 0.7413858993436614 0.4616845950574052	0.102117
H	0.9346075481633915 0.8842566533839001 0.4609250583909861	0.102223
H	0.8594271414913448 0.9617216918994629 0.4700349764694901	0.102235
H	0.7936908676728119 0.0383695740555509 0.4696383415267923	0.086071
H	0.7155169955030801 0.1094048301706944 0.4711508324497473	0.104030
H	0.6458318734189554 0.1662263397893508 0.4723077096636455	0.118549
H	0.5640260357043535 0.2413858753436591 0.4616845950574052	0.102118
H	0.5653924518366085 0.3842566303838941 0.4609250583909861	0.102224
H	0.6405728585086552 0.4617217378994591 0.4700349764694901	0.102236
H	0.7063091323271881 0.5383695680555510 0.4696383415267923	0.086070
H	0.7844830044969199 0.6094048421706952 0.4711508324497473	0.104029
H	0.8541680845810411 0.6662263517893519 0.4723077096636455	0.118546
H	0.9359740062956429 0.7413858993436614 0.4616845950574052	0.102118
H	0.0653924368366036 0.8842566533839001 0.4609250583909861	0.102224
H	0.1405728895086550 0.9617216918994629 0.4700349764694901	0.102236
H	0.2063090913271882 0.0383695740555509 0.4696383415267923	0.086070
H	0.2844830044969201 0.1094048301706944 0.4711508324497473	0.104029
H	0.3541681265810442 0.1662263397893508 0.4723077096636455	0.118546
H	0.4359739232956466 0.2413858753436591 0.4616845950574052	0.102118
H	0.4346075481633916 0.6157433926161037 -0.0390749626090117	0.102222
H	0.3594271414913442 0.5382782621005404 -0.0299650485305084	0.102218
H	0.2936909296728099 0.4616304319444499 -0.0303616354732094	0.086070
H	0.2155170165030783 0.3905951578293047 -0.0288492115502496	0.104028
H	0.1458318734189559 0.3337736722106502 -0.0276922403363503	0.118543
H	0.0640260507043513 0.2586141006563390 -0.0383153889426006	0.102118
H	0.9346075481633915 0.1157433696161057 -0.0390749626090117	0.102222
H	0.8594271414913448 0.0382782821005353 -0.0299650485305084	0.102218
H	0.7936908676728119 0.9616304319444490 -0.0303616354732094	0.086070
H	0.7155169955030801 0.8905952048293051 -0.0288492115502496	0.104028
H	0.6458318734189554 0.8337736952106485 -0.0276922403363503	0.118543
H	0.5640260357043535 0.7586141006563386 -0.0383153889426006	0.102118
H	0.4349694018688059 0.3840734388215950 0.0342745836783300	0.116589
H	0.3592944036302443 0.4624711865961104 0.0261527373446167	0.102645
H	0.2933638493894442 0.5387367144698787 0.0274648588000625	0.085391
H	0.2151717110011850 0.6096419007982650 0.0274371334160985	0.103699
H	0.1466326408837585 0.6658436811366095 0.0262828780299297	0.118526
H	0.0641370303595822 0.7417009480454720 0.0348995063170411	0.116433
H	0.9349694018688061 0.8840734618216004 0.0342745836783300	0.116589
H	0.8592944036302445 0.9624711405961136 0.0261527373446167	0.102645
H	0.7933637873894467 0.0387367204698790 0.0274648588000625	0.085391
H	0.7151716900011866 0.1096418887982641 0.0274371334160985	0.103699
H	0.6466326408837585 0.1658436691366086 0.0262828780299297	0.118526
H	0.5641370153595840 0.2417009240454703 0.0348995063170411	0.116434
H	0.5650305981311939 0.6159265841784034 0.5342746136783324	0.116590
H	0.6407055963697555 0.5375288134038897 0.5261527373446173	0.102646
H	0.7066362126105533 0.4612632855301216 0.5274647968000652	0.085391
H	0.7848283099988134 0.3903580992017350 0.5274371644161050	0.103699
H	0.8533673171162380 0.3341563428633924 0.5262828470299307	0.118526
H	0.9358630266404123 0.2582990519545277 0.5348995373170397	0.116433
H	0.0650305831311893 0.1159265611784049 0.5342746136783324	0.116590
H	0.1407056273697547 0.0375288334038840 0.5261527373446173	0.102646
H	0.2066361716105539 0.9612632855301213 0.5274647968000652	0.085391
H	0.2848283099988131 0.8903581462017354 0.5274371644161050	0.103699
H	0.3533673591162417 0.8341563658633908 0.5262828470299307	0.118526
H	0.4358629436404155 0.7582990519545280 0.5348995373170397	0.116433
Fe	0.5000000000000000 0.6875834721136010 0.7397204909252321	0.551343
Fe	-0.0000000000000000 0.1875834721136007 0.7397204909252321	0.551343
Fe	0.5000000000000000 0.3124165278863989 0.2397204759252342	0.551343
Fe	-0.0000000000000000 0.8124164808863986 0.2397204759252342	0.551381
F	0.5000000000000000 0.6865923578539239 0.5332666628913317	-0.575104
F	-0.0000000000000000 0.1865923918539269 0.5332666628913317	-0.575104
F	0.5000000000000000 0.3134076191460772 0.0332666318913327	-0.575104
F	-0.0000000000000000 0.8134075961460794 0.0332666318913327	-0.575106
F	0.4462492055668442 0.7478446270287664 0.2617261857920743	-0.574551
F	0.5539700667368885 0.6243092913987891 0.2622296417867853	-0.570392
F	0.9462492055668438 0.2478446730287630 0.2617261857920743	-0.574551
F	0.0539700667368879 0.1243093033987831 0.2622296417867852	-0.570392
F	0.5537507944331562 0.2521553269712367 0.7617262007920721	-0.574552
F	0.4460299332631121 0.3756907086012108 0.7622296567867823	-0.570390
F	0.0537507734331578 0.7521553729712336 0.7617262007920721	-0.574552
F	0.9460299332631115 0.8756907546012147 0.7622296567867823	-0.570390
F	0.5537507944331562 0.7478446270287664 0.2617261857920743	-0.574552
F	0.4460299332631120 0.6243092913987891 0.2622296417867852	-0.570392
F	0.0537507734331578 0.2478446730287630 0.2617261857920743	-0.574552
F	0.9460299332631115 0.1243093033987831 0.2622296417867852	-0.570392
F	0.4462492055668442 0.2521553269712367 0.7617262007920721	-0.574553
F	0.5539700667368885 0.3756907086012108 0.7622296567867823	-0.570390
F	0.9462492055668438 0.7521553729712336 0.7617262007920721	-0.574553
F	0.0539700667368879 0.8756907546012147 0.7622296567867823	-0.570390
O	0.5000000000000000 0.6859007534512815 0.0533505003195316	-0.784367
O	-0.0000000000000000 0.1859007874512841 0.0533505003195316	-0.784367
O	0.5000000000000000 0.3140992235487203 0.5533505233195296	-0.784368
O	-0.0000000000000000 0.8140992005487218 0.5533505233195296	-0.784370
N	0.4392034051579637 0.6195544419298470 0.7470011808380739	-0.181286
N	0.5612720573721141 0.7552026783288389 0.7476729228943862	-0.186882
N	0.9392034461579638 0.1195544529298444 0.7470011808380739	-0.181286
N	0.0612720733721150 0.2552026313288382 0.7476729228943862	-0.186882
N	0.5607965948420360 0.3804455350701547 0.2470011658380761	-0.181287
N	0.4387279426278861 0.2447973446711598 0.2476729078943885	-0.186882
N	0.0607965948420362 0.8804455580701530 0.2470011658380761	-0.181309
N	0.9387279426278859 0.7447973216711611 0.2476729078943885	-0.186874
N	0.5607965948420360 0.6195544419298470 0.7470011808380739	-0.181279
N	0.4387279426278862 0.7552026783288389 0.7476729228943862	-0.186873
N	0.0607965948420362 0.1195544529298444 0.7470011808380739	-0.181279
N	0.9387279426278859 0.2552026313288382 0.7476729228943862	-0.186873
N	0.4392034051579637 0.3804455350701547 0.2470011658380761	-0.181280
N	0.5612720573721141 0.2447973446711598 0.2476729078943885	-0.186872
N	0.9392034461579638 0.8804455580701530 0.2470011658380761	-0.181301
N	0.0612720733721150 0.7447973216711611 0.2476729078943885	-0.186865
V	0.5000000000000000 0.6859613390014727 0.2215872309905436	2.204926
V	-0.0000000000000000 0.1859613850014695 0.2215872309905436	2.204926
V	0.5000000000000000 0.3140386149985301 0.7215872459905407	2.204926
V	-0.0000000000000000 0.8140386609985273 0.7215872459905407	2.204927
	  	
