#======================================================================

# CRYSTAL DATA

#----------------------------------------------------------------------

data_VESTA_phase_1


_pd_phase_name                         VOFFIVE_6_Fe_i
_cell_length_a                         17.71352
_cell_length_b                         17.71352
_cell_length_c                         14.95393
_cell_angle_alpha                      90
_cell_angle_beta                       90
_cell_angle_gamma                      90
_symmetry_space_group_name_H-M         P 1
_symmetry_Int_Tables_number            1

loop_
_symmetry_equiv_pos_as_xyz
   x, y, z

loop_
   _atom_site_label
   _atom_site_fract_x
   _atom_site_fract_y
   _atom_site_fract_z
   _atom_site_charge
N	0.2422958277961449 0.1352370169678676 0.1284384939277588	-0.242016
N	0.2577041722038556 0.3647629960321373 0.1284384939277588	-0.242016
N	0.3647629960321373 0.2422958277961449 0.1284384939277588	-0.242016
N	0.1352370169678676 0.2577041722038556 0.1284384939277588	-0.242016
N	0.7550872906407458 0.6278296010694345 0.3704592965461058	-0.261859
N	0.7449127093592542 0.8721703989305655 0.3704592965461058	-0.261860
N	0.6278296010694345 0.7449127093592542 0.3704592965461058	-0.261859
N	0.8721703989305655 0.7550872906407458 0.3704592965461058	-0.261859
N	0.7550872906407458 0.8721703989305655 0.8704592965461060	-0.261861
N	0.7449127093592542 0.6278296010694345 0.8704592965461060	-0.261860
N	0.6278296010694345 0.7550872906407458 0.8704592965461060	-0.261860
N	0.8721703989305655 0.7449127093592542 0.8704592965461060	-0.261861
N	0.2422958277961449 0.3647629960321373 0.6284384939277587	-0.242017
N	0.2577041722038556 0.1352370169678676 0.6284384939277587	-0.242017
N	0.3647629960321373 0.2577041722038556 0.6284384939277587	-0.242017
N	0.1352370169678676 0.2422958277961449 0.6284384939277587	-0.242018
C	0.2001192265953579 0.0973236210524703 0.1888948747258646	0.099804
C	0.1935204117976736 0.0190734528940879 0.1883474822072523	-0.184603
C	0.2334389850913468 0.9759571273264283 0.1253051194989385	0.105544
C	0.2776962427400252 0.0160584387854370 0.0636142552978103	-0.181643
C	0.2797060969007257 0.0946282509702241 0.0660745877767521	0.103944
C	0.2279894063109028 0.8924952192116707 0.1241375555473842	0.062738
C	0.2918996873401289 0.8472732872309342 0.1215460040938565	-0.172467
C	0.2865432805366669 0.7674121357819041 0.1227189321843193	0.084091
C	0.1487028635648950 0.7798013019801650 0.1252457513796988	-0.124618
C	0.1557558907867471 0.8571970660674835 0.1270641499129161	-0.138488
C	0.2998807864046468 0.4026763589475282 0.1888948747258646	0.099805
C	0.3064796012023309 0.4809265571059057 0.1883474822072523	-0.184603
C	0.2665610149086531 0.5240428726735717 0.1253051194989385	0.105543
C	0.2223037572599744 0.4839415762145607 0.0636142552978103	-0.181643
C	0.2202939030992745 0.4053717420297717 0.0660745877767521	0.103944
C	0.2720105936890972 0.6075047807883293 0.1241375555473842	0.062738
C	0.2081002996598733 0.6527267127690658 0.1215460040938565	-0.172467
C	0.2134567194633328 0.7325878642180959 0.1227189321843193	0.084090
C	0.3512971364351053 0.7201986980198350 0.1252457513796988	-0.124619
C	0.3442441092132530 0.6428029339325165 0.1270641499129161	-0.138488
C	0.4026763589475282 0.2001192265953579 0.1888948747258646	0.099804
C	0.4809265571059057 0.1935204117976736 0.1883474822072523	-0.184602
C	0.5240428726735717 0.2334389850913468 0.1253051194989385	0.105544
C	0.4839415762145607 0.2776962427400252 0.0636142552978103	-0.181643
C	0.4053717420297717 0.2797060969007257 0.0660745877767521	0.103944
C	0.6075047807883293 0.2279894063109028 0.1241375555473842	0.062738
C	0.6527267127690658 0.2918996873401289 0.1215460040938565	-0.172468
C	0.7325878642180959 0.2865432805366669 0.1227189321843193	0.084091
C	0.7201986980198350 0.1487028635648950 0.1252457513796988	-0.124618
C	0.6428029339325165 0.1557558907867471 0.1270641499129161	-0.138488
C	0.0973236210524703 0.2998807864046468 0.1888948747258646	0.099804
C	0.0190734528940879 0.3064796012023309 0.1883474822072523	-0.184603
C	0.9759571273264283 0.2665610149086531 0.1253051194989385	0.105543
C	0.0160584387854370 0.2223037572599744 0.0636142552978103	-0.181643
C	0.0946282509702241 0.2202939030992745 0.0660745877767521	0.103943
C	0.8924952192116707 0.2720105936890972 0.1241375555473842	0.062738
C	0.8472732872309342 0.2081002996598733 0.1215460040938565	-0.172467
C	0.7674121357819041 0.2134567194633328 0.1227189321843193	0.084090
C	0.7798013019801650 0.3512971364351053 0.1252457513796988	-0.124619
C	0.8571970660674835 0.3442441092132530 0.1270641499129161	-0.138487
C	0.7980883014995508 0.5927389747818436 0.3089517815248995	0.107198
C	0.8086729792137399 0.5151927682493517 0.3105253025332155	-0.177473
C	0.7706866647175821 0.4722075017645236 0.3749261287498044	0.111145
C	0.7246195905544287 0.5094946136634284 0.4369889193748135	-0.179749
C	0.7194358846841388 0.5874330538088729 0.4339223404488117	0.111686
C	0.7765456111525022 0.3897545969211862 0.3762829213603732	0.061029
C	0.7110065260263484 0.3474568857391815 0.3791624947946799	-0.173654
C	0.7137751558036503 0.2680875089836572 0.3779739590525044	0.086639
C	0.8528104535351871 0.2763237687925812 0.3754465714778193	-0.121394
C	0.8480958538592104 0.3536877858802950 0.3732897227949206	-0.135714
C	0.7019116985004492 0.9072610252181564 0.3089517815248995	0.107197
C	0.6913270207862601 0.9848072317506483 0.3105253025332155	-0.177473
C	0.7293133352824179 0.0277925202354782 0.3749261287498044	0.111160
C	0.7753804094455713 0.9905054393365724 0.4369889193748135	-0.179772
C	0.7805641153158612 0.9125669461911271 0.4339223404488117	0.111688
C	0.7234543888474978 0.1102454030788139 0.3762829213603732	0.061037
C	0.7889934739736516 0.1525431012608206 0.3791624947946799	-0.173652
C	0.7862248441963497 0.2319124910163427 0.3779739590525044	0.086637
C	0.6471895464648129 0.2236762312074186 0.3754465714778193	-0.121395
C	0.6519041461407896 0.1463121881197030 0.3732897227949206	-0.135715
C	0.5927389747818436 0.7019116985004492 0.3089517815248995	0.107198
C	0.5151927682493517 0.6913270207862601 0.3105253025332155	-0.177472
C	0.4722075017645236 0.7293133352824179 0.3749261287498044	0.111145
C	0.5094946136634284 0.7753804094455713 0.4369889193748135	-0.179749
C	0.5874330538088729 0.7805641153158612 0.4339223404488117	0.111686
C	0.3897545969211862 0.7234543888474978 0.3762829213603732	0.061029
C	0.3474568857391815 0.7889934739736516 0.3791624947946799	-0.173654
C	0.2680875089836572 0.7862248441963497 0.3779739590525044	0.086639
C	0.2763237687925812 0.6471895464648129 0.3754465714778193	-0.121394
C	0.3536877858802950 0.6519041461407896 0.3732897227949206	-0.135714
C	0.9072610252181564 0.7980883014995508 0.3089517815248995	0.107197
C	0.9848072317506483 0.8086729792137399 0.3105253025332155	-0.177473
C	0.0277925202354782 0.7706866647175821 0.3749261287498044	0.111160
C	0.9905054393365724 0.7246195905544287 0.4369889193748135	-0.179772
C	0.9125669461911271 0.7194358846841388 0.4339223404488117	0.111687
C	0.1102454030788139 0.7765456111525022 0.3762829213603732	0.061036
C	0.1525431012608206 0.7110065260263484 0.3791624947946799	-0.173652
C	0.2319124910163427 0.7137751558036503 0.3779739590525044	0.086637
C	0.2236762312074186 0.8528104535351871 0.3754465714778193	-0.121395
C	0.1463121881197030 0.8480958538592104 0.3732897227949206	-0.135715
C	0.7980883014995508 0.9072610252181564 0.8089517495248972	0.107197
C	0.8086729792137399 0.9848072317506483 0.8105253345332114	-0.177473
C	0.7706866647175821 0.0277925202354782 0.8749261287498052	0.111161
C	0.7246195905544287 0.9905054393365724 0.9369889513748091	-0.179771
C	0.7194358846841388 0.9125669461911271 0.9339223084488090	0.111688
C	0.7765456111525022 0.1102454030788139 0.8762828573603750	0.061029
C	0.7110065260263484 0.1525431012608206 0.8791625267946823	-0.173668
C	0.7137751558036503 0.2319124910163427 0.8779738960525099	0.086631
C	0.8528104535351871 0.2236762312074186 0.8754465714778189	-0.121392
C	0.8480958538592104 0.1463121881197030 0.8732897227949207	-0.135716
C	0.7019116985004492 0.5927389747818436 0.8089517495248971	0.107198
C	0.6913270207862601 0.5151927682493517 0.8105253345332114	-0.177473
C	0.7293133352824179 0.4722075017645236 0.8749261287498052	0.111146
C	0.7753804094455713 0.5094946136634284 0.9369889513748091	-0.179749
C	0.7805641153158612 0.5874330538088729 0.9339223084488090	0.111686
C	0.7234543888474978 0.3897545969211862 0.8762828573603750	0.061022
C	0.7889934739736516 0.3474568857391815 0.8791625267946823	-0.173670
C	0.7862248441963497 0.2680875089836572 0.8779738960525099	0.086630
C	0.6471895464648129 0.2763237687925812 0.8754465714778189	-0.121393
C	0.6519041461407896 0.3536877858802950 0.8732897227949207	-0.135714
C	0.5927389747818436 0.7980883014995508 0.8089517495248971	0.107198
C	0.5151927682493517 0.8086729792137399 0.8105253345332114	-0.177473
C	0.4722075017645236 0.7706866647175821 0.8749261287498052	0.111146
C	0.5094946136634284 0.7246195905544287 0.9369889513748091	-0.179748
C	0.5874330538088729 0.7194358846841388 0.9339223084488090	0.111686
C	0.3897545969211862 0.7765456111525022 0.8762828573603750	0.061022
C	0.3474568857391815 0.7110065260263484 0.8791625267946823	-0.173670
C	0.2680875089836572 0.7137751558036503 0.8779738960525099	0.086632
C	0.2763237687925812 0.8528104535351871 0.8754465714778189	-0.121391
C	0.3536877858802950 0.8480958538592104 0.8732897227949207	-0.135715
C	0.9072610252181564 0.7019116985004492 0.8089517495248971	0.107197
C	0.9848072317506483 0.6913270207862601 0.8105253345332114	-0.177473
C	0.0277925202354782 0.7293133352824179 0.8749261287498052	0.111161
C	0.9905054393365724 0.7753804094455713 0.9369889513748091	-0.179772
C	0.9125669461911271 0.7805641153158612 0.9339223084488090	0.111687
C	0.1102454030788139 0.7234543888474978 0.8762828573603750	0.061029
C	0.1525431012608206 0.7889934739736516 0.8791625267946823	-0.173668
C	0.2319124910163427 0.7862248441963497 0.8779738960525099	0.086629
C	0.2236762312074186 0.6471895464648129 0.8754465714778189	-0.121393
C	0.1463121881197030 0.6519041461407896 0.8732897227949207	-0.135715
C	0.2001192265953579 0.4026763589475282 0.6888948747258647	0.099805
C	0.1935204117976736 0.4809265571059057 0.6883474502072571	-0.184602
C	0.2334389850913468 0.5240428726735717 0.6253051114989380	0.105543
C	0.2776962427400252 0.4839415762145607 0.5636142192978143	-0.181643
C	0.2797060969007257 0.4053717420297717 0.5660746197767547	0.103944
C	0.2279894063109028 0.6075047807883293 0.6241376115473813	0.062738
C	0.2918996873401289 0.6527267127690658 0.6215459880938554	-0.172468
C	0.2865432805366669 0.7325878642180959 0.6227189791843198	0.084091
C	0.1487028635648950 0.7201986980198350 0.6252457593796990	-0.124619
C	0.1557558907867471 0.6428029339325165 0.6270641649129201	-0.138488
C	0.2998807864046468 0.0973236210524703 0.6888948747258647	0.099804
C	0.3064796012023309 0.0190734528940879 0.6883474502072571	-0.184602
C	0.2665610149086531 0.9759571273264283 0.6253051114989380	0.105543
C	0.2223037572599744 0.0160584387854370 0.5636142192978143	-0.181643
C	0.2202939030992745 0.0946282509702241 0.5660746197767547	0.103944
C	0.2720105936890972 0.8924952192116707 0.6241376115473813	0.062738
C	0.2081002996598733 0.8472732872309342 0.6215459880938554	-0.172468
C	0.2134567194633328 0.7674121357819041 0.6227189791843198	0.084089
C	0.3512971364351053 0.7798013019801650 0.6252457593796990	-0.124621
C	0.3442441092132530 0.8571970660674835 0.6270641649129201	-0.138488
C	0.4026763589475282 0.2998807864046468 0.6888948747258647	0.099804
C	0.4809265571059057 0.3064796012023309 0.6883474502072571	-0.184602
C	0.5240428726735717 0.2665610149086531 0.6253051114989380	0.105543
C	0.4839415762145607 0.2223037572599744 0.5636142192978143	-0.181643
C	0.4053717420297717 0.2202939030992745 0.5660746197767547	0.103944
C	0.6075047807883293 0.2720105936890972 0.6241376115473813	0.062738
C	0.6527267127690658 0.2081002996598733 0.6215459880938554	-0.172468
C	0.7325878642180959 0.2134567194633328 0.6227189791843198	0.084091
C	0.7201986980198350 0.3512971364351053 0.6252457593796990	-0.124619
C	0.6428029339325165 0.3442441092132530 0.6270641649129201	-0.138488
C	0.0973236210524703 0.2001192265953579 0.6888948747258647	0.099804
C	0.0190734528940879 0.1935204117976736 0.6883474502072571	-0.184602
C	0.9759571273264283 0.2334389850913468 0.6253051114989380	0.105543
C	0.0160584387854370 0.2776962427400252 0.5636142192978143	-0.181643
C	0.0946282509702241 0.2797060969007257 0.5660746197767547	0.103944
C	0.8924952192116707 0.2279894063109028 0.6241376115473813	0.062738
C	0.8472732872309342 0.2918996873401289 0.6215459880938554	-0.172468
C	0.7674121357819041 0.2865432805366669 0.6227189791843198	0.084089
C	0.7798013019801650 0.1487028635648950 0.6252457593796990	-0.124621
C	0.8571970660674835 0.1557558907867471 0.6270641649129201	-0.138488
H	0.1720846683779431 0.1312386579603239 0.2398926971070154	0.099798
H	0.1587159729553114 0.9915801671699965 0.2388386571837109	0.109406
H	0.3090895620045491 0.9862816405313160 0.0118370929595849	0.110580
H	0.3106404740254463 0.1269163136297803 0.0159289804912844	0.102512
H	0.3479123529870777 0.8730644920544257 0.1209726867351568	0.107519
H	0.0929260582140913 0.7536557448766460 0.1261293942811531	0.105164
H	0.1054723821625977 0.8928037995478189 0.1289336741188583	0.098561
H	0.3279153186220595 0.3687613690396750 0.2398926971070154	0.099798
H	0.3412840400446861 0.5084198858300043 0.2388386571837109	0.109406
H	0.1909104249954539 0.5137183054686796 0.0118370929595849	0.110580
H	0.1893595259745537 0.3730836723702186 0.0159289804912844	0.102512
H	0.1520876470129222 0.6269355079455743 0.1209726867351568	0.107518
H	0.4070739217859143 0.7463442551233540 0.1261293942811531	0.105163
H	0.3945276178374023 0.6071962004521811 0.1289336741188583	0.098561
H	0.3687613690396750 0.1720846683779431 0.2398926971070154	0.099798
H	0.5084198858300043 0.1587159729553114 0.2388386571837109	0.109405
H	0.5137183054686796 0.3090895620045491 0.0118370929595849	0.110580
H	0.3730836723702186 0.3106404740254463 0.0159289804912844	0.102512
H	0.6269355079455743 0.3479123529870777 0.1209726867351568	0.107519
H	0.7463442551233540 0.0929260582140913 0.1261293942811531	0.105164
H	0.6071962004521811 0.1054723821625977 0.1289336741188583	0.098561
H	0.1312386579603239 0.3279153186220595 0.2398926971070154	0.099798
H	0.9915801671699965 0.3412840400446861 0.2388386571837109	0.109406
H	0.9862816405313160 0.1909104249954539 0.0118370929595849	0.110580
H	0.1269163136297803 0.1893595259745537 0.0159289804912844	0.102512
H	0.8730644920544257 0.1520876470129222 0.1209726867351568	0.107518
H	0.7536557448766460 0.4070739217859143 0.1261293942811531	0.105163
H	0.8928037995478189 0.3945276178374023 0.1289336741188583	0.098561
H	0.8229105390767651 0.6282244730504862 0.2568980516274346	0.107303
H	0.8439161179463854 0.4879656621437307 0.2602861352047623	0.114800
H	0.6949349779747581 0.4776321994271342 0.4884374079588975	0.114286
H	0.6875027382400126 0.6193095127367091 0.4836955607467869	0.103779
H	0.6561952522194134 0.3755720626602646 0.3796541053199314	0.107944
H	0.9074858547819424 0.2478770797101656 0.3749352482846363	0.108408
H	0.8989323352357451 0.3884403643091346 0.3713918931782730	0.100059
H	0.6770894609232349 0.8717755269495138 0.2568980516274346	0.107303
H	0.6560838820536146 0.0120343028562629 0.2602861352047623	0.114799
H	0.8050650220252419 0.0223678275728717 0.4884374079588975	0.114288
H	0.8124972617599874 0.8806904872632909 0.4836955607467869	0.103779
H	0.8438047477805866 0.1244279373397353 0.3796541053199314	0.107943
H	0.5925141452180576 0.2521229202898340 0.3749352482846363	0.108408
H	0.6010676647642549 0.1115596356908652 0.3713918931782730	0.100060
H	0.6282244730504862 0.6770894609232349 0.2568980516274346	0.107303
H	0.4879656621437307 0.6560838820536146 0.2602861352047623	0.114799
H	0.4776321994271342 0.8050650220252419 0.4884374079588975	0.114287
H	0.6193095127367091 0.8124972617599874 0.4836955607467869	0.103779
H	0.3755720626602646 0.8438047477805866 0.3796541053199314	0.107944
H	0.2478770797101656 0.5925141452180576 0.3749352482846363	0.108408
H	0.3884403643091346 0.6010676647642549 0.3713918931782730	0.100060
H	0.8717755269495138 0.8229105390767651 0.2568980516274346	0.107303
H	0.0120343028562629 0.8439161179463854 0.2602861352047623	0.114799
H	0.0223678275728717 0.6949349779747581 0.4884374079588975	0.114288
H	0.8806904872632909 0.6875027382400126 0.4836955607467869	0.103779
H	0.1244279373397353 0.6561952522194134 0.3796541053199314	0.107944
H	0.2521229202898340 0.9074858547819424 0.3749352482846363	0.108408
H	0.1115596356908652 0.8989323352357451 0.3713918931782730	0.100060
H	0.8229105390767651 0.8717755269495138 0.7568980366274292	0.107303
H	0.8439161179463854 0.0120343028562629 0.7602861512047632	0.114800
H	0.6949349779747581 0.0223678275728717 0.9884374079588976	0.114288
H	0.6875027382400126 0.8806904872632909 0.9836955607467869	0.103779
H	0.6561952522194134 0.1244279373397353 0.8796540743199246	0.107972
H	0.9074858547819424 0.2521229202898340 0.8749352482846363	0.108408
H	0.8989323352357451 0.1115596356908652 0.8713919251782684	0.100060
H	0.6770894609232349 0.6282244730504862 0.7568980366274292	0.107303
H	0.6560838820536146 0.4879656621437307 0.7602861512047632	0.114801
H	0.8050650220252419 0.4776321994271342 0.9884374079588976	0.114287
H	0.8124972617599874 0.6193095127367091 0.9836955607467869	0.103779
H	0.8438047477805866 0.3755720626602646 0.8796540743199246	0.107972
H	0.5925141452180576 0.2478770797101656 0.8749352482846363	0.108408
H	0.6010676647642549 0.3884403643091346 0.8713919251782684	0.100059
H	0.6282244730504862 0.8229105390767651 0.7568980366274292	0.107303
H	0.4879656621437307 0.8439161179463854 0.7602861512047632	0.114801
H	0.4776321994271342 0.6949349779747581 0.9884374079588976	0.114287
H	0.6193095127367091 0.6875027382400126 0.9836955607467869	0.103779
H	0.3755720626602646 0.6561952522194134 0.8796540743199246	0.107972
H	0.2478770797101656 0.9074858547819424 0.8749352482846363	0.108408
H	0.3884403643091346 0.8989323352357451 0.8713919251782684	0.100060
H	0.8717755269495138 0.6770894609232349 0.7568980366274292	0.107303
H	0.0120343028562629 0.6560838820536146 0.7602861512047632	0.114800
H	0.0223678275728717 0.8050650220252419 0.9884374079588976	0.114288
H	0.8806904872632909 0.8124972617599874 0.9836955607467869	0.103779
H	0.1244279373397353 0.8438047477805866 0.8796540743199246	0.107972
H	0.2521229202898340 0.5925141452180576 0.8749352482846363	0.108408
H	0.1115596356908652 0.6010676647642549 0.8713919251782684	0.100060
H	0.1720846683779431 0.3687613690396750 0.7398927121070207	0.099798
H	0.1587159729553114 0.5084198858300043 0.7388386411837095	0.109406
H	0.3090895620045491 0.5137183054686796 0.5118371299595840	0.110580
H	0.3106404740254463 0.3730836723702186 0.5159289664912839	0.102513
H	0.3479123529870777 0.6269355079455743 0.6209727107351593	0.107518
H	0.0929260582140913 0.7463442551233540 0.6261293862811520	0.105164
H	0.1054723821625977 0.6071962004521811 0.6289336581188640	0.098560
H	0.3279153186220595 0.1312386579603239 0.7398927121070207	0.099798
H	0.3412840400446861 0.9915801671699965 0.7388386411837095	0.109406
H	0.1909104249954539 0.9862816405313160 0.5118371299595840	0.110580
H	0.1893595259745537 0.1269163136297803 0.5159289664912839	0.102513
H	0.1520876470129222 0.8730644920544257 0.6209727107351593	0.107518
H	0.4070739217859143 0.7536557448766460 0.6261293862811520	0.105163
H	0.3945276178374023 0.8928037995478189 0.6289336581188640	0.098560
H	0.3687613690396750 0.3279153186220595 0.7398927121070207	0.099798
H	0.5084198858300043 0.3412840400446861 0.7388386411837095	0.109406
H	0.5137183054686796 0.1909104249954539 0.5118371299595840	0.110580
H	0.3730836723702186 0.1893595259745537 0.5159289664912839	0.102513
H	0.6269355079455743 0.1520876470129222 0.6209727107351593	0.107518
H	0.7463442551233540 0.4070739217859143 0.6261293862811520	0.105164
H	0.6071962004521811 0.3945276178374023 0.6289336581188640	0.098560
H	0.1312386579603239 0.1720846683779431 0.7398927121070207	0.099798
H	0.9915801671699965 0.1587159729553114 0.7388386411837095	0.109406
H	0.9862816405313160 0.3090895620045491 0.5118371299595840	0.110580
H	0.1269163136297803 0.3106404740254463 0.5159289664912839	0.102513
H	0.8730644920544257 0.3479123529870777 0.6209727107351593	0.107518
H	0.7536557448766460 0.0929260582140913 0.6261293862811520	0.105163
H	0.8928037995478189 0.1054723821625977 0.6289336581188640	0.098560
F	0.3141780142919519 0.1674402022821859 0.3805974231955626	-0.585441
F	0.1858219857080481 0.3325597977178144 0.3805974231955626	-0.585441
F	0.3325597977178144 0.3141780142919519 0.3805974231955626	-0.585441
F	0.1674402022821859 0.1858219857080481 0.3805974231955626	-0.585441
F	0.6834679764064505 0.6682580299633648 0.1247528380979196	-0.607798
F	0.8165320235935495 0.8317419700366352 0.1247528380979196	-0.607798
F	0.6682580299633648 0.8165320235935495 0.1247528380979196	-0.607799
F	0.8317419700366352 0.6834679764064505 0.1247528380979196	-0.607798
F	0.6834679764064505 0.8317419700366352 0.6247528300979195	-0.607798
F	0.8165320235935495 0.6682580299633648 0.6247528300979195	-0.607798
F	0.6682580299633648 0.6834679764064505 0.6247528300979195	-0.607798
F	0.8317419700366352 0.8165320235935495 0.6247528300979195	-0.607798
F	0.3141780142919519 0.3325597977178144 0.8805974231955624	-0.585442
F	0.1858219857080481 0.1674402022821859 0.8805974231955624	-0.585441
F	0.3325597977178144 0.1858219857080481 0.8805974231955624	-0.585441
F	0.1674402022821859 0.3141780142919519 0.8805974231955624	-0.585442
F	0.2500000000000000 0.2500000000000000 0.5016323575850383	-0.595848
F	0.7500000000000000 0.7500000000000000 0.2464671826156318	-0.608155
F	0.7500000000000000 0.7500000000000000 0.7464672136156312	-0.608156
F	0.2500000000000000 0.2500000000000000 0.0016323895850338	-0.595848
O	0.2500000000000000 0.2500000000000000 0.2563532751876837	-0.839039
O	0.7500000000000000 0.7500000000000000 -0.0010364315878003	-0.935819
O	0.7500000000000000 0.7500000000000000 0.4989635734121965	-0.935819
O	0.2500000000000000 0.2500000000000000 0.7563532601876787	-0.839040
Fe	0.2500000000000000 0.2500000000000000 0.1308040929093226	0.874110
Fe	0.7500000000000000 0.7500000000000000 0.3748921892171957	1.083399
Fe	0.7500000000000000 0.7500000000000000 0.8748921252171897	1.083401
Fe	0.2500000000000000 0.2500000000000000 0.6308041409093260	0.874113
V	0.2500000000000000 0.2500000000000000 0.3672659276072464	2.249322
V	0.7500000000000000 0.7500000000000000 0.1136275986598323	2.223973
V	0.7500000000000000 0.7500000000000000 0.6136276146598261	2.223973
V	0.2500000000000000 0.2500000000000000 0.8672659276072469	2.249322
	  	
