#======================================================================

# CRYSTAL DATA

#----------------------------------------------------------------------

data_VESTA_phase_1


_pd_phase_name                         VOFFIVE_7_Cu
_cell_length_a                         18.94384
_cell_length_b                         18.94384
_cell_length_c                         8.09877
_cell_angle_alpha                      90
_cell_angle_beta                       90
_cell_angle_gamma                      90
_symmetry_space_group_name_H-M         P 1
_symmetry_Int_Tables_number            1

loop_
_symmetry_equiv_pos_as_xyz
   x, y, z

loop_
   _atom_site_label
   _atom_site_fract_x
   _atom_site_fract_y
   _atom_site_fract_z
   _atom_site_charge
C	0.6665441394405589 0.8700738272845306 0.6973237111244873	0.102072
C	0.6148397431747812 0.9220269885787008 0.7012572264748075	-0.174742
C	0.5805616145224914 0.8870054406000559 0.4283358449548029	-0.168175
C	0.6328073082211302 0.8357465076347312 0.4335493789445104	0.097799
C	0.8334558605594411 0.6299261727154694 0.6973237111244873	0.102070
C	0.8851602568252188 0.5779730114212992 0.7012572264748075	-0.174736
C	0.9194383354775115 0.6129946103999447 0.4283358449548029	-0.168186
C	0.8671926417788728 0.6642534923652688 0.4335493789445104	0.097801
C	0.6299261727154694 0.6665441394405589 0.6973237111244873	0.102071
C	0.5779730114212992 0.6148397431747812 0.7012572264748075	-0.174738
C	0.6129946103999447 0.5805616145224914 0.4283358449548029	-0.168173
C	0.6642534923652688 0.6328073082211302 0.4335493789445104	0.097799
C	0.8700738272845306 0.8334558605594411 0.6973237111244873	0.102070
C	0.9220269885787008 0.8851602568252188 0.7012572264748075	-0.174739
C	0.8870054406000559 0.9194383354775115 0.4283358449548029	-0.168187
C	0.8357465076347312 0.8671926417788728 0.4335493789445104	0.097801
C	0.3332660144880946 0.3697711919493143 0.3027305314051812	0.101927
C	0.3848181061815361 0.4219812841696835 0.2985073696632360	-0.173849
C	0.4194656125759577 0.3873532515095927 0.5714266069691067	-0.171134
C	0.3674738481137071 0.3359429541833532 0.5665376484161235	0.098856
C	0.1667339725119079 0.1302288080506857 0.3027305314051812	0.101927
C	0.1151818938184640 0.0780187158303165 0.2985073696632360	-0.173849
C	0.0805343874240423 0.1126467484904073 0.5714266069691067	-0.171134
C	0.1325261388862954 0.1640570458166468 0.5665376484161235	0.098856
C	0.3697711919493143 0.1667339725119079 0.3027305314051812	0.101927
C	0.4219812841696835 0.1151818938184640 0.2985073696632360	-0.173849
C	0.3873532515095927 0.0805343874240423 0.5714266069691067	-0.171133
C	0.3359429541833532 0.1325261388862954 0.5665376484161235	0.098856
C	0.1302288080506857 0.3332660144880946 0.3027305314051812	0.101927
C	0.0780187158303165 0.3848181061815361 0.2985073696632360	-0.173849
C	0.1126467484904073 0.4194656125759577 0.5714266069691067	-0.171133
C	0.1640570458166468 0.3674738481137071 0.5665376484161235	0.098856
C	0.4324244188805848 0.0708424475138658 0.4353802488191968	0.139864
C	0.4872415923539632 0.0168512320460519 0.4321864088336033	-0.120549
C	0.0675755621194101 0.4291575214861352 0.4353802488191968	0.139864
C	0.0127583816460347 0.4831487539539470 0.4321864088336033	-0.120551
C	0.4291575214861352 0.4324244188805848 0.4353802488191968	0.139863
C	0.4831487539539470 0.4872415923539632 0.4321864088336033	-0.120544
C	0.0708424475138658 0.0675755621194101 0.4353802488191968	0.139865
C	0.0168512320460519 0.0127583816460347 0.4321864088336033	-0.120556
C	0.5678241386323534 0.5705985244756429 0.5640664861162176	0.139686
C	0.5128534910769832 0.5167739575246969 0.5670657431676864	-0.121580
C	0.9321759113676508 0.9294015255243613 0.5640664861162176	0.139699
C	0.9871464579230161 0.9832260424753031 0.5670657431676864	-0.121535
C	0.5705985244756429 0.9321759113676508 0.5640664861162176	0.139707
C	0.5167739575246969 0.9871464579230161 0.5670657431676864	-0.121560
C	0.9294015255243613 0.5678241386323534 0.5640664861162176	0.139679
C	0.9832260424753031 0.5128534910769832 0.5670657431676864	-0.121555
H	0.7010464600034745 0.8609235828544299 0.8027476907264044	0.107291
H	0.6096209073528021 0.9547937986039330 0.8110689556906009	0.118546
H	0.5471513198522330 0.8906470376078461 0.3192561518157025	0.117983
H	0.6426260379650685 0.8008852429701755 0.3291427373540198	0.114434
H	0.7989535399965255 0.6390763661455694 0.8027476907264044	0.107291
H	0.8903790926471979 0.5452061513960700 0.8110689556906009	0.118545
H	0.9528486291477664 0.6093529113921532 0.3192561518157025	0.117986
H	0.8573739620349315 0.6991147570298245 0.3291427373540198	0.114434
H	0.6390763661455694 0.7010464600034745 0.8027476907264044	0.107291
H	0.5452061513960700 0.6096209073528021 0.8110689556906009	0.118546
H	0.6093529113921532 0.5471513198522330 0.3192561518157025	0.117983
H	0.6991147570298245 0.6426260379650685 0.3291427373540198	0.114434
H	0.8609235828544299 0.7989535399965255 0.8027476907264044	0.107291
H	0.9547937986039330 0.8903790926471979 0.8110689556906009	0.118545
H	0.8906470376078461 0.9528486291477664 0.3192561518157025	0.117986
H	0.8008852429701755 0.8573739620349315 0.3291427373540198	0.114434
H	0.2989536613724837 0.3596084452991032 0.1974434892300317	0.113985
H	0.3901408657062612 0.4545929277611834 0.1883994841186544	0.118623
H	0.4530146394475780 0.3908902892804626 0.6802151773414719	0.118740
H	0.3586774839919203 0.3008859295983676 0.6710739975009563	0.107304
H	0.2010463516275209 0.1403915677009015 0.1974434892300317	0.113985
H	0.1098591082937366 0.0454070912388146 0.1883994841186544	0.118623
H	0.0469853915524211 0.1091096977195328 0.6802151773414719	0.118740
H	0.1413225160080797 0.1991140574016347 0.6710739975009563	0.107304
H	0.3596084452991032 0.2010463516275209 0.1974434892300317	0.113985
H	0.4545929277611834 0.1098591082937366 0.1883994841186544	0.118623
H	0.3908902892804626 0.0469853915524211 0.6802151773414719	0.118740
H	0.3008859295983676 0.1413225160080797 0.6710739975009563	0.107304
H	0.1403915677009015 0.2989536613724837 0.1974434892300317	0.113985
H	0.0454070912388146 0.3901408657062612 0.1883994841186544	0.118623
H	0.1091096977195328 0.4530146394475780 0.6802151773414719	0.118740
H	0.1991140574016347 0.3586774839919203 0.6710739975009563	0.107304
H	0.5064719303182612 0.0016559886475589 0.3099382262240873	0.103419
H	0.9935280196817418 0.4983440093524409 0.3099382262240873	0.103418
H	0.4983440093524409 0.5064719303182612 0.3099382262240873	0.103418
H	0.0016559886475589 0.9935280196817418 0.3099382262240873	0.103419
H	0.4935972048826879 0.5016722719444804 0.6893692659844730	0.103166
H	0.0064027761173140 0.9983277780555166 0.6893692659844730	0.103128
H	0.5016722719444804 0.0064027761173140 0.6893692659844730	0.103131
H	0.9983277780555166 0.4935972048826879 0.6893692659844730	0.103163
Cu	0.2500000000000000 0.2500000000000000 0.4330431903944860	0.732843
Cu	0.7500000000000000 0.7500000000000000 0.5650081581588953	0.732338
V	0.2500000000000000 0.2500000000000000 0.9162463059448809	2.259757
V	0.7500000000000000 0.7500000000000000 0.0464602162554648	2.259638
F	0.2500000000000000 0.2500000000000000 0.1656506003580192	-0.654129
F	0.7500000000000000 0.7500000000000000 0.2959630744336693	-0.653423
F	0.3201975506665020 0.3180844181720073 0.9389934911916901	-0.593451
F	0.1798024493334978 0.1819155688279951 0.9389934911916901	-0.593451
F	0.1819155688279951 0.3201975506665020 0.9389934911916901	-0.593451
F	0.3180844181720073 0.1798024493334978 0.9389934911916901	-0.593451
F	0.6805801743385722 0.8188762036641698 0.0692868603007085	-0.593400
F	0.8194198256614278 0.6811237963358302 0.0692868603007085	-0.593400
F	0.8188762036641698 0.8194198256614278 0.0692868603007085	-0.593400
F	0.6811237963358302 0.6805801743385722 0.0692868603007085	-0.593400
O	0.2500000000000000 0.2500000000000000 0.7118521299110399	-0.839885
O	0.7500000000000000 0.7500000000000000 0.8421859197559715	-0.840535
N	0.3273836298681906 0.1751083551611403 0.4347562252389272	-0.217863
N	0.1726163701318095 0.3248916448388597 0.4347562252389272	-0.217863
N	0.3248916448388597 0.3273836298681906 0.4347562252389272	-0.217863
N	0.1751083551611403 0.1726163701318095 0.4347562252389272	-0.217863
N	0.6724670077748280 0.6752401157045348 0.5658385703402057	-0.218110
N	0.8275329922251720 0.8247598842954652 0.5658385703402057	-0.218111
N	0.6752401157045348 0.8275329922251720 0.5658385703402057	-0.218111
N	0.8247598842954652 0.6724670077748280 0.5658385703402057	-0.218111
	  	
