#======================================================================

# CRYSTAL DATA

#----------------------------------------------------------------------

data_VESTA_phase_1


_pd_phase_name                         VOFFIVE_14_Fe_i
_cell_length_a                         13.41750
_cell_length_b                         13.40723
_cell_length_c                         7.81683
_cell_angle_alpha                      87.40939
_cell_angle_beta                       87.42872
_cell_angle_gamma                      89.79628
_symmetry_space_group_name_H-M         P 1
_symmetry_Int_Tables_number            1

loop_
_symmetry_equiv_pos_as_xyz
   x, y, z

loop_
   _atom_site_label
   _atom_site_fract_x
   _atom_site_fract_y
   _atom_site_fract_z
   _atom_site_charge
C	0.5712229862118736 0.2699742382432172 0.3650416497878184	-0.186945
C	0.4678390244845810 0.2742518140024556 0.3711500267397712	0.115070
C	0.9346316026534611 0.2908555972190207 0.4184286356107420	-0.176383
C	0.0377919386548306 0.2842151018894133 0.4048753749697611	0.113288
C	0.2683851332139935 0.5711206050280121 0.3675614945376878	-0.186300
C	0.2724800787559740 0.4676181347854844 0.3743750109057224	0.117296
C	0.2984749512473523 0.9346300919803918 0.4125245436452663	-0.176899
C	0.2906619715345564 0.0378040285261344 0.3999447796577331	0.112328
C	0.9302963313512731 0.2327515833986052 0.1312112898998428	-0.184534
C	0.0338072106129799 0.2300709202043760 0.1274464036969841	0.112458
C	0.5632978799692632 0.2062525529785660 0.0820860840226345	-0.175603
C	0.4601861606170637 0.2147943000369126 0.0976230155595589	0.109983
C	0.2073067488788153 0.5630833393464081 0.0828779478972155	-0.177862
C	0.2159374156805234 0.4599529326377465 0.0989397372296390	0.109092
C	0.2292150448149379 0.9300380130100291 0.1334012411609080	-0.184455
C	0.2261907942791829 0.0336311569309719 0.1297860187248827	0.116059
C	0.4306587773796018 0.7348172802534280 0.6302050173171063	-0.183825
C	0.5341335990006539 0.7327599864571365 0.6262227885425670	0.110540
C	0.0632225948478925 0.7271486447765160 0.5700741358234011	-0.171774
C	0.9599704625957192 0.7309633889074795 0.5893808311609872	0.109988
C	0.7348813195071082 0.4305788262616401 0.6301358072119625	-0.184470
C	0.7331458190845683 0.5341508748802394 0.6261759141666685	0.111535
C	0.7145648206425643 0.0630613718079799 0.5757879895473028	-0.172226
C	0.7205821741490773 0.9597816253025443 0.5933477076419349	0.108607
C	0.0711064811019831 0.7628128233677907 0.8690763774010953	-0.187462
C	0.9677242333905268 0.7651577366525135 0.8769888831228717	0.113849
C	0.4347024421387528 0.7803459724740039 0.9250423276604466	-0.171482
C	0.5379676169796199 0.7767998104272100 0.9096282504222104	0.110870
C	0.7810696509099679 0.4343444377263637 0.9246253067550745	-0.174585
C	0.7771246253016018 0.5376558428625421 0.9096603576605263	0.111467
C	0.7678815279684950 0.0708202995364923 0.8657329686859979	-0.184902
C	0.7715160455103685 0.9673894880243128 0.8724735677066759	0.112241
C	0.6206750501827794 0.2357475464325618 0.2164580419106149	0.198914
C	0.8789255995567609 0.2628686423253557 0.2809268390277858	0.197133
C	0.2355350535341614 0.6205062667881174 0.2180335428137482	0.200907
C	0.2654361718762315 0.8788350813965451 0.2787524450920192	0.197115
C	0.3791595789550279 0.7583457472365360 0.7840179288440139	0.189461
C	0.1205831137195260 0.7438177362603744 0.7113538977932657	0.190749
C	0.7585783888317323 0.3789023703164164 0.7836667376509620	0.189780
C	0.7392870323925675 0.1203941645895016 0.7131599444235386	0.191207
H	0.6131406372033457 0.2882712099266348 0.4753957352437240	0.109785
H	0.4273052099222708 0.2985841649742931 0.4859168694721818	0.093124
H	0.8974442594368660 0.3167176488367647 0.5346387900194106	0.125545
H	0.0825360144019504 0.3046118833410958 0.5109099629429059	0.094159
H	0.2856671856132908 0.6133961510182449 0.4780229791024140	0.112095
H	0.2955424759037421 0.4271315879844738 0.4900650639809558	0.091991
H	0.3290050532934244 0.8975140670774184 0.5251462634779752	0.126095
H	0.3142638244389586 0.0827431397853445 0.5036562321719492	0.095250
H	0.8898560969753596 0.2161470758889396 0.0182591691687363	0.112514
H	0.0761766844595505 0.2092895474592486 0.0121796024792906	0.099759
H	0.5989698114817940 0.1775367216878267 0.9667355251480247	0.126690
H	0.4135770955285191 0.1940712542734150 0.9941093559071371	0.102302
H	0.1800021167718957 0.5986598212310319 0.9662748281196248	0.127637
H	0.1965599660565021 0.4132651828561283 0.9946791047812250	0.102459
H	0.2082126830648106 0.8894312184444733 0.0231364975173946	0.114913
H	0.2012582721445116 0.0759430104184717 0.0172084582262156	0.099137
H	0.3907901401553222 0.7216243582547569 0.5149177582721827	0.104492
H	0.5767343577367857 0.7155293750826986 0.5093028746319472	0.099877
H	0.0988062372336672 0.7119093870258630 0.4464065415357572	0.122916
H	0.9134758081867861 0.7184051346357275 0.4817494358397217	0.101178
H	0.7217769957160942 0.3906593227546305 0.5149530579667823	0.106427
H	0.7161062976407423 0.5769190644145118 0.5093071567059044	0.100426
H	0.6909893408783371 0.0987842390586833 0.4567859945455106	0.123429
H	0.7022853184081508 0.9132432820187438 0.4883984015360001	0.101364
H	0.1127045810253027 0.7721499040913726 0.9839084454409490	0.101025
H	0.9271249256790757 0.7793597438230878 0.9972175037260109	0.089389
H	0.3974793055933353 0.7996681083946638 0.0452877088944990	0.121879
H	0.5824262664948687 0.7941755502572959 0.0175383869144769	0.091658
H	0.8010479268054194 0.3969854023923136 0.0444169505715279	0.123104
H	0.7945040038921360 0.5820977118814582 0.0176426908221873	0.090868
H	0.7830415986795493 0.1123159305375771 0.9782056298870230	0.103461
H	0.7928961792266311 0.9266261539190510 0.9889013750983746	0.091461
N	0.7744796970197547 0.2738442332577257 0.2986370421326128	-0.125768
N	0.2779359428852053 0.7743386928937743 0.2940426859465768	-0.125371
N	0.7251195006471841 0.2234688705464084 0.1978864406989058	-0.126401
N	0.2226270625439600 0.7249448097219787 0.2011379461788101	-0.123723
N	0.2250311902688756 0.7374806574470324 0.6845943252865788	-0.114231
N	0.7302056178435253 0.2249140940719566 0.6891753067705189	-0.116473
N	0.2746811202502780 0.7646330399627536 0.8088493033850225	-0.116364
N	0.7662551892660732 0.2743980935814627 0.8064689916077902	-0.116673
N	0.4125978050452153 0.2481213344091130 0.2400009396882387	-0.267061
N	0.0873471799683086 0.2538133710837591 0.2622314236295011	-0.267059
N	0.2477968979129398 0.4123284497919449 0.2424876600844588	-0.266404
N	0.2548597347911579 0.0872107136747950 0.2612952532574424	-0.264805
N	0.5876654060868786 0.7526650850769362 0.7633615187320074	-0.242684
N	0.9122720216467017 0.7497350636107153 0.7402690627705288	-0.244677
N	0.7529518209004559 0.5875484408026196 0.7634515003990037	-0.244954
N	0.7486847311116562 0.9120898732942936 0.7392104271134972	-0.244710
F	0.3437543339905043 0.1490661339455322 0.7583760640497904	-0.553896
F	0.1538098065827468 0.3453504089823441 0.7552118127083030	-0.554027
F	0.3466537004094762 0.3419837651017149 0.7409420172909911	-0.557268
F	0.1514060819929250 0.1530227656514103 0.7750985261579563	-0.555430
F	0.6505664096408835 0.8442495176369040 0.2574482896578765	-0.552086
F	0.8453646093001685 0.6532708859653483 0.2564461421676598	-0.553008
F	0.6535381399784119 0.6521821544089783 0.2736125329872356	-0.551319
F	0.8434008502300864 0.8459134442446992 0.2429351797846445	-0.552453
F	0.2487640712317668 0.2486505597739829 -0.0026396279400897	-0.609962
F	0.7482879473978425 0.7487634166763460 0.4976549328596035	-0.602826
O	0.2494302012105755 0.2469679993814127 0.5145897409610897	-0.854875
O	0.7488848694984758 0.7498044235124585 0.0144157715077600	-0.822002
V	0.2490823394300829 0.2472746727318950 0.7272125419288538	2.248839
V	0.7483271347244320 0.7491969326489518 0.2273630302285599	2.241991
Fe	0.2502276575460976 0.2499595544314222 0.2492244796707411	1.049410
Fe	0.7501472070804033 0.7499816866517165 0.7495634577205675	0.909631
	  	
