#======================================================================

# CRYSTAL DATA

#----------------------------------------------------------------------

data_VESTA_phase_1


_pd_phase_name                         VOFFIVE_14_Co_i
_cell_length_a                         13.14219
_cell_length_b                         13.13073
_cell_length_c                         7.87041
_cell_angle_alpha                      87.28482
_cell_angle_beta                       87.20538
_cell_angle_gamma                      89.76765
_symmetry_space_group_name_H-M         P 1
_symmetry_Int_Tables_number            1

loop_
_symmetry_equiv_pos_as_xyz
   x, y, z

loop_
   _atom_site_label
   _atom_site_fract_x
   _atom_site_fract_y
   _atom_site_fract_z
   _atom_site_charge
C	0.5698795399034708 0.2677738673878320 0.3641612325279195	-0.183198
C	0.4645811511055571 0.2729123255584583 0.3699550534331339	0.106210
C	0.9355310174585377 0.2959399792566499 0.4162496858695395	-0.175022
C	0.0406686203708967 0.2877308441883729 0.4049810207615132	0.109483
C	0.2661605448838509 0.5694096277765782 0.3664569232166415	-0.183061
C	0.2710011795101365 0.4639896681988596 0.3728141920372937	0.107576
C	0.3029910869602758 0.9353457118741606 0.4108218137116826	-0.175005
C	0.2942626882186350 0.0405325405908383 0.4004638335588800	0.107675
C	0.9327754552006303 0.2348330456262443 0.1314591128895199	-0.180441
C	0.0381566476296579 0.2310512324850491 0.1293941270365205	0.103638
C	0.5625520820329211 0.2018850612584070 0.0831653717544880	-0.171142
C	0.4574692605412197 0.2114691936457308 0.0980213275457165	0.106041
C	0.2036331714799610 0.5616945064472568 0.0833200339182225	-0.172569
C	0.2129881895988961 0.4565667824310896 0.0987300608865461	0.106345
C	0.2313729616821158 0.9321909753408267 0.1337983963100826	-0.181053
C	0.2275069019484624 0.0376407391885861 0.1320604033183311	0.106862
C	0.4370691506826872 0.7311459262653113 0.6306918276047216	-0.173119
C	0.5429160399648959 0.7294507053515285 0.6274154983190964	0.099416
C	0.0574039596206316 0.7273053692764218 0.5731759015203676	-0.160187
C	0.9517741289613536 0.7298780554354204 0.5922904591560793	0.101491
C	0.7318549559094932 0.4372705461402773 0.6308464658382952	-0.174088
C	0.7306156369378880 0.5432193252730800 0.6273144083390791	0.101901
C	0.7153552959181828 0.0572548859836312 0.5792251306147200	-0.161620
C	0.7191857666096620 0.9515958169971217 0.5974064766196043	0.101140
C	0.0649343092212428 0.7655379518582949 0.8679084141361807	-0.177705
C	0.9591532157504722 0.7672072907695413 0.8770725944488884	0.103902
C	0.4392675506297346 0.7803815146494453 0.9206065110292061	-0.161823
C	0.5449087490933134 0.7776889053735104 0.9073601813544278	0.104908
C	0.7807653550584439 0.4397078036367257 0.9208606444369838	-0.163390
C	0.7781789506715604 0.5454178575911995 0.9075992326297491	0.104730
C	0.7706686480104508 0.0650102412601950 0.8649880810429895	-0.175508
C	0.7731249029811568 0.9591534847829570 0.8735103417957992	0.104615
C	0.6198702829851086 0.2323781842465009 0.2167592799548601	0.190794
C	0.8803858016140267 0.2667079531581808 0.2791375740906924	0.191565
C	0.2326024723320005 0.6191956323913101 0.2178189206235450	0.193327
C	0.2687861393748109 0.8799823928162815 0.2773582719214915	0.190093
C	0.3826785352993806 0.7564783645226866 0.7814110529810958	0.187724
C	0.1165189804183844 0.7453877677807834 0.7121324046091482	0.189243
C	0.7566463663856461 0.3829156129083230 0.7817825026559992	0.189389
C	0.7416197984899665 0.1165931185644439 0.7139909064360020	0.188592
H	0.6127965485325668 0.2860869080053070 0.4733172219369817	0.108772
H	0.4223177982718642 0.2977472080759332 0.4832931206468114	0.100276
H	0.8962747989785658 0.3235573217147927 0.5297317668677844	0.124765
H	0.0864240998631602 0.3082108028559161 0.5100141754614350	0.103885
H	0.2831782678809703 0.6127343815897245 0.4759427374889792	0.110073
H	0.2941691419685897 0.4217703009421777 0.4871513061418460	0.099909
H	0.3349166647617914 0.8962051427721155 0.5207496941946335	0.125796
H	0.3182281898467836 0.0865002606409105 0.5030964768690781	0.104942
H	0.8920202892713153 0.2179416735088159 0.0191401424309757	0.112490
H	0.0825504416793750 0.2096002610594527 0.0161288549143795	0.108696
H	0.5996703302264059 0.1719284210985828 0.9695664445020425	0.126188
H	0.4094955155705114 0.1905979460213754 0.9960686675189410	0.113471
H	0.1753304791783344 0.5986207794508956 0.9684158817513729	0.125375
H	0.1933757267710838 0.4084604380449872 0.9960948171506161	0.113000
H	0.2102671382947360 0.8913188642692299 0.0238668003439734	0.114762
H	0.2021287691874183 0.0819966122698191 0.0214703673754182	0.108612
H	0.3981871601271724 0.7157987100753045 0.5155389560244719	0.111094
H	0.5865944259669859 0.7112126312555930 0.5117688355661172	0.108036
H	0.0930569953608906 0.7113790905842174 0.4497894709874882	0.125305
H	0.9046712305262399 0.7156293443018118 0.4861584070255964	0.111820
H	0.7168751053172696 0.3981262984923620 0.5157779591728963	0.112115
H	0.7129867180244657 0.5869013655738721 0.5114792666753597	0.107388
H	0.6919303328065337 0.0929372967707519 0.4600290748052999	0.126358
H	0.6991812685486642 0.9043621557727496 0.4941906383282078	0.111615
H	0.1065951245857554 0.7765721827726437 0.9819485201599970	0.106335
H	0.9178477448723490 0.7819147791274070 0.9966949349081224	0.100773
H	0.4010620300111421 0.8011777546491463 0.0393876855452246	0.123767
H	0.5893428475778926 0.7969007341881047 0.0143419732123915	0.104106
H	0.8013301618991043 0.4014786172933839 0.0396370082062717	0.124292
H	0.7972070427983882 0.5900310734112005 0.0145730152384048	0.104165
H	0.7877944661137358 0.1066841045275914 0.9763799347388896	0.107451
H	0.7946676538505613 0.9179184308509791 0.9896619887838163	0.102222
N	0.7739909338616954 0.2774833908172570 0.2942720847060185	-0.111264
N	0.2803265610405755 0.7735182619395558 0.2912149334405056	-0.111481
N	0.7263150618371087 0.2204949497862394 0.2001148110502399	-0.110113
N	0.2207450301042775 0.7256287891664478 0.2017487454615279	-0.112060
N	0.2236706122138581 0.7385228690458083 0.6836507615688158	-0.104639
N	0.7334647000568156 0.2237869295850399 0.6868967549046080	-0.106001
N	0.2754813513183148 0.7634257371060649 0.8070848289276256	-0.105268
N	0.7637798293424756 0.2756864943350700 0.8068083810542306	-0.107981
N	0.4094606235595104 0.2462513141717625 0.2390856846303968	-0.178391
N	0.0910783350591294 0.2552990859159865 0.2643404942484891	-0.177999
N	0.2459981924280109 0.4086944958828948 0.2410959383401914	-0.179392
N	0.2567483314809669 0.0906894398320973 0.2638194485474656	-0.177402
N	0.5970221453816836 0.7515850167451921 0.7635076773963526	-0.169054
N	0.9024051125018403 0.7498292476364897 0.7418880911492650	-0.171861
N	0.7523697694643007 0.5974707128174517 0.7635618935879475	-0.170182
N	0.7480584112314134 0.9023592842261756 0.7421466103450005	-0.171671
F	0.3468572494126634 0.1463071008641263 0.7565727408953073	-0.576811
F	0.1513400157049513 0.3479747893251130 0.7550414934253488	-0.576946
F	0.3490964815857224 0.3445405635116253 0.7373976695826020	-0.574758
F	0.1492926219913715 0.1505026521416571 0.7784651262913349	-0.573742
F	0.6457561039610068 0.8476524420907886 0.2568945915022897	-0.572592
F	0.8488658054497660 0.6511441897878858 0.2543631573386433	-0.573369
F	0.6499447346070110 0.6486449819857715 0.2781442767599069	-0.570686
F	0.8457941683615275 0.8505451494155544 0.2341669296486308	-0.571130
F	0.2500623159356138 0.2489129650923180 -0.0051565115937866	-0.627504
F	0.7497385091444811 0.7513415350833044 0.4874048160534476	-0.620914
O	0.2486221077022829 0.2464012663622662 0.5182859020148222	-0.833449
O	0.7466534689378683 0.7486188787803745 0.0214071977768354	-0.828936
V	0.2492278100716501 0.2470856331820069 0.7293715507766697	2.231219
V	0.7473778016497707 0.7496154314777393 0.2319072878157935	2.225045
Co	0.2504072823906552 0.2497319657406943 0.2527158823037327	0.646074
Co	0.7497789230953400 0.7501116098939455 0.7558888661408687	0.647676
	  	
