#======================================================================

# CRYSTAL DATA

#----------------------------------------------------------------------

data_VESTA_phase_1


_pd_phase_name                         VOFFIVE_4_Cd_i
_cell_length_a                         24.22914
_cell_length_b                         21.08624
_cell_length_c                         10.61868
_cell_angle_alpha                      90
_cell_angle_beta                       90
_cell_angle_gamma                      90
_symmetry_space_group_name_H-M         P 1
_symmetry_Int_Tables_number            1

loop_
_symmetry_equiv_pos_as_xyz
   x, y, z

loop_
   _atom_site_label
   _atom_site_fract_x
   _atom_site_fract_y
   _atom_site_fract_z
   _atom_site_charge
C	0.4106720912007641 0.5899218498538288 0.6385105181391335	0.103210
C	0.3679238467485916 0.5462049882068920 0.6375184290875745	-0.165119
C	0.2767193499819526 0.4511671546278113 0.6382116966816739	-0.112803
C	0.2325661246505645 0.4093174135276048 0.6372368593723580	-0.111423
C	0.1359245000818472 0.3240561481405575 0.6354599936103206	-0.167291
C	0.0908039212761211 0.2835409207906855 0.6376677492059727	0.096526
C	0.9106721332007606 0.0899218498538289 0.6385105181391335	0.103217
C	0.8679238887485951 0.0462049822068915 0.6375184290875745	-0.165131
C	0.7767193709819576 0.9511672006278152 0.6382116966816739	-0.112759
C	0.7325661446505662 0.9093174595276015 0.6372368593723580	-0.111431
C	0.6359245000818472 0.8240561481405575 0.6354599936103206	-0.167291
C	0.5908039162761173 0.7835409677906787 0.6376677492059727	0.096526
C	0.5893279087992358 0.4100781501461710 0.1385104791391337	0.103201
C	0.6320761532514084 0.4537950117931080 0.1375184130875733	-0.165123
C	0.7232806290180424 0.5488328453721886 0.1382117276816656	-0.112758
C	0.7674338553494338 0.5906825864723952 0.1372369053723546	-0.111438
C	0.8640755409181526 0.6759438048594422 0.1354600086103254	-0.167309
C	0.9091961257238791 0.7164590322093213 0.1376677652059741	0.096557
C	0.0893279137992398 0.9100781041461745 0.1385104791391337	0.103199
C	0.1320761322514031 0.9537949657931113 0.1375184130875733	-0.165087
C	0.2232806290180493 0.0488328403721847 0.1382117276816656	-0.112804
C	0.2674338753494356 0.0906825744724013 0.1372369053723546	-0.111427
C	0.3640754999181528 0.1759438518594424 0.1354600086103254	-0.167291
C	0.4091960837238829 0.2164590562093161 0.1376677652059741	0.096526
C	0.5887162135860026 0.5909052183609754 0.8558768999753287	0.102010
C	0.6315475079060954 0.5472439259500251 0.8603205279138194	-0.165739
C	0.7235038821438750 0.4511457672657187 0.8618574470406754	-0.109773
C	0.7676763950789804 0.4092296087853686 0.8622011689804678	-0.110513
C	0.8646613609046393 0.3233826956840195 0.8608116201207541	-0.173239
C	0.9097729235514983 0.2828844253402042 0.8560462489950879	0.092550
C	0.0887162185860065 0.0909052183609755 0.8558768999753287	0.102075
C	0.1315474869060902 0.0472439199500246 0.8603205279138194	-0.165733
C	0.2235038821438820 0.9511458132657296 0.8618574470406754	-0.109759
C	0.2676764150789820 0.9092296547853653 0.8622011689804678	-0.110514
C	0.3646613199046395 0.8233826956840266 0.8608116201207541	-0.173243
C	0.4097728815515020 0.7828844723402045 0.8560462489950879	0.092550
C	0.4112837864139975 0.4090947816390245 0.3558769309753276	0.102008
C	0.3684524920939045 0.4527560740499750 0.3603205899138175	-0.165714
C	0.2764960968561270 0.5488542327342742 0.3618574470406754	-0.109757
C	0.2323235849210180 0.5907703912146314 0.3622011379804688	-0.110515
C	0.1353386800953605 0.6766172573159731 0.3608115581207561	-0.173243
C	0.0902271234485020 0.7171155276597955 0.3560461869950897	0.092549
C	0.9112838284139938 0.9090947356390279 0.3558769309753276	0.102083
C	0.8684525340939081 0.9527560280499782 0.3603205899138175	-0.165759
C	0.7764961178561250 0.0488542277342774 0.3618574470406754	-0.109768
C	0.7323236049210196 0.0907703792146376 0.3622011379804688	-0.110515
C	0.6353386800953605 0.1766173043159805 0.3608115581207561	-0.173243
C	0.5902271184484981 0.2171155516597974 0.3560461869950897	0.092549
C	0.5887162135860026 0.4090947816390245 0.3558769309753276	0.102014
C	0.6315475079060954 0.4527560740499750 0.3603205899138175	-0.165740
C	0.7235038821438750 0.5488542327342742 0.3618574470406754	-0.109773
C	0.7676763950789804 0.5907703912146314 0.3622011379804688	-0.110513
C	0.8646613609046393 0.6766172573159731 0.3608115581207561	-0.173239
C	0.9097729235514983 0.7171155276597955 0.3560461869950897	0.092551
C	0.0887162185860065 0.9090947356390279 0.3558769309753276	0.102078
C	0.1315474869060902 0.9527560280499782 0.3603205899138175	-0.165734
C	0.2235038821438820 0.0488542277342774 0.3618574470406754	-0.109759
C	0.2676764150789820 0.0907703792146376 0.3622011379804688	-0.110514
C	0.3646613199046395 0.1766173043159805 0.3608115581207561	-0.173243
C	0.4097728815515020 0.2171155516597974 0.3560461869950897	0.092550
C	0.4112837864139975 0.5909052183609754 0.8558768999753287	0.102005
C	0.3684524920939045 0.5472439259500251 0.8603205279138194	-0.165714
C	0.2764960968561270 0.4511457672657187 0.8618574470406754	-0.109758
C	0.2323235849210180 0.4092296087853686 0.8622011689804678	-0.110515
C	0.1353386800953605 0.3233826956840195 0.8608116201207541	-0.173243
C	0.0902271234485020 0.2828844253402042 0.8560462489950879	0.092551
C	0.9112838284139938 0.0909052183609755 0.8558768999753287	0.102080
C	0.8684525340939081 0.0472439199500246 0.8603205279138194	-0.165759
C	0.7764961178561250 0.9511458132657296 0.8618574470406754	-0.109768
C	0.7323236049210196 0.9092296547853653 0.8622011689804678	-0.110515
C	0.6353386800953605 0.8233826956840266 0.8608116201207541	-0.173243
C	0.5902271184484981 0.7828844723402045 0.8560462489950879	0.092551
C	0.4106720912007641 0.4100781501461710 0.1385104791391337	0.103198
C	0.3679238467485916 0.4537950117931080 0.1375184130875733	-0.165100
C	0.2767193499819526 0.5488328453721886 0.1382117276816656	-0.112804
C	0.2325661246505645 0.5906825864723952 0.1372369053723546	-0.111428
C	0.1359245000818472 0.6759438048594422 0.1354600086103254	-0.167291
C	0.0908039212761211 0.7164590322093213 0.1376677652059741	0.096527
C	0.9106721332007606 0.9100781041461745 0.1385104791391337	0.103204
C	0.8679238887485951 0.9537949657931113 0.1375184130875733	-0.165111
C	0.7767193709819576 0.0488328403721847 0.1382117276816656	-0.112760
C	0.7325661446505662 0.0906825744724013 0.1372369053723546	-0.111436
C	0.6359245000818472 0.1759438518594424 0.1354600086103254	-0.167291
C	0.5908039162761173 0.2164590562093161 0.1376677652059741	0.096527
C	0.5893279087992358 0.5899218498538288 0.6385105181391335	0.103216
C	0.6320761532514084 0.5462049882068920 0.6375184290875745	-0.165142
C	0.7232806290180424 0.4511671546278113 0.6382116966816739	-0.112756
C	0.7674338553494338 0.4093174135276048 0.6372368593723580	-0.111433
C	0.8640755409181526 0.3240561481405575 0.6354599936103206	-0.167308
C	0.9091961257238791 0.2835409207906855 0.6376677492059727	0.096559
C	0.0893279137992398 0.0899218498538289 0.6385105181391335	0.103213
C	0.1320761322514031 0.0462049822068915 0.6375184290875745	-0.165107
C	0.2232806290180493 0.9511672006278152 0.6382116966816739	-0.112803
C	0.2674338753494356 0.9093174595276015 0.6372368593723580	-0.111423
C	0.3640754999181528 0.8240561481405575 0.6354599936103206	-0.167291
C	0.4091960837238829 0.7835409677906787 0.6376677492059727	0.096528
C	0.3452799080536224 0.5221451221606217 0.7496592866562874	0.118128
C	0.2998294660475733 0.4748667252914005 0.7501792336934409	0.072647
C	0.2083185373050945 0.3877115123888442 0.7495435723728565	0.062822
C	0.1600157003423771 0.3449090263502601 0.7486645863676351	0.104616
C	0.8452799490536222 0.0221451201606214 0.7496592866562874	0.118188
C	0.7998295290475750 0.9748667712914044 0.7501792336934409	0.072601
C	0.7083185373050945 0.8877115123888442 0.7495435723728565	0.062823
C	0.6600157213423752 0.8449090263502600 0.7486645863676351	0.104617
C	0.6547200919463776 0.4778548778393784 0.2496592716562897	0.118216
C	0.7001704709524250 0.5251332287085956 0.2501792186934432	0.072597
C	0.7916814626949055 0.6122884876111558 0.2495435573728587	0.062821
C	0.8399842786576248 0.6550909736497400 0.2486645713676374	0.104605
C	0.1547200819463768 0.9778548308393780 0.2496592716562897	0.118088
C	0.2001705129524215 0.0251332657085951 0.2501792186934432	0.072653
C	0.2916814626949055 0.1122884986111602 0.2495435573728587	0.062821
C	0.3399842996576229 0.1550909966497383 0.2486645713676374	0.104615
C	0.6547200919463776 0.5221451221606217 0.7496592866562874	0.118222
C	0.7001704709524250 0.4748667252914005 0.7501792336934409	0.072597
C	0.7916814626949055 0.3877115123888442 0.7495435723728565	0.062822
C	0.8399842786576248 0.3449090263502601 0.7486645863676351	0.104606
C	0.1547200819463768 0.0221451201606214 0.7496592866562874	0.118094
C	0.2001705129524215 0.9748667712914044 0.7501792336934409	0.072653
C	0.2916814626949055 0.8877115123888442 0.7495435723728565	0.062822
C	0.3399842996576229 0.8449090263502600 0.7486645863676351	0.104616
C	0.3452799080536224 0.4778548778393784 0.2496592716562897	0.118122
C	0.2998294660475733 0.5251332287085956 0.2501792186934432	0.072647
C	0.2083185373050945 0.6122884876111558 0.2495435573728587	0.062821
C	0.1600157003423771 0.6550909736497400 0.2486645713676374	0.104615
C	0.8452799490536222 0.9778548308393780 0.2496592716562897	0.118181
C	0.7998295290475750 0.0251332657085951 0.2501792186934432	0.072601
C	0.7083185373050945 0.1122884986111602 0.2495435573728587	0.062821
C	0.6600157213423752 0.1550909966497383 0.2486645713676374	0.104616
H	0.4284318705357048 0.6085686868042309 0.5511401938137037	0.113746
H	0.3529706559667272 0.5321520484346672 0.5458744132237904	0.096637
H	0.2928395281252804 0.4651736112688665 0.5474173444785121	0.082744
H	0.2169660630131699 0.3938331479869389 0.5461355214547333	0.104823
H	0.1515983027736479 0.3387479377175998 0.5440315848499182	0.118979
H	0.0714813796711793 0.2660035033148547 0.5511118925342168	0.113835
H	0.9284318705357048 0.1085686638042325 0.5511401938137037	0.113745
H	0.8529706559667272 0.0321520684346618 0.5458744132237904	0.096638
H	0.7928394661252823 0.9651736112688666 0.5474173444785121	0.082712
H	0.7169660420131717 0.8938331949869391 0.5461355214547333	0.104824
H	0.6515983027736477 0.8387479607175981 0.5440315848499182	0.118979
H	0.5714813646711816 0.7660035033148548 0.5511118925342168	0.113836
H	0.5715681294642952 0.3914313361957674 0.0511401638137012	0.113773
H	0.6470293440332728 0.4678479515653328 0.0458744132237902	0.096635
H	0.7071605338747177 0.5348263887311334 0.0474174064785099	0.082712
H	0.7830339579868283 0.6061668520130612 0.0461354904547272	0.104834
H	0.8484016552263488 0.6612520862824023 0.0440316158499172	0.118979
H	0.9285186773288148 0.7339964966851452 0.0511118615342177	0.113833
H	0.0715681144642904 0.8914313591957729 0.0511401638137012	0.113773
H	0.1470293750332718 0.9678479055653361 0.0458744132237902	0.096632
H	0.2071604928747178 0.0348263947311340 0.0474174064785099	0.082743
H	0.2830339579868283 0.1061668400130602 0.0461354904547272	0.104833
H	0.3484016972263522 0.1612520742824012 0.0440316158499172	0.118977
H	0.4285185943288186 0.2339964726851433 0.0511118615342177	0.113836
H	0.5706352761765754 0.6099086922289608 0.9424157340246986	0.106525
H	0.6459207100641311 0.5342315965949687 0.9530413986685127	0.096921
H	0.7075652622349811 0.4650832164024467 0.9528573265104788	0.083488
H	0.7834733041574102 0.3935776612593119 0.9530525329456228	0.104747
H	0.8494972896719741 0.3375783028967344 0.9530063479090785	0.118976
H	0.9292152320590262 0.2653595851939441 0.9421681618821467	0.105462
H	0.0706352611765708 0.1099086692289624 0.9424157340246986	0.106513
H	0.1459207410641300 0.0342316165949633 0.9530413986685127	0.096915
H	0.2075652212349809 0.9650832164024465 0.9528573265104788	0.083486
H	0.2834733041574102 0.8935777082593122 0.9530525329456228	0.104747
H	0.3494973316719776 0.8375783258967328 0.9530063479090785	0.118977
H	0.4292151490590300 0.7653595851939440 0.9421681618821467	0.105462
H	0.4293647238234244 0.3900913307710376 0.4424157550246969	0.106525
H	0.3540792899358690 0.4657684034050313 0.4530414236685114	0.096921
H	0.2924347997650172 0.5349167835975535 0.4528573035104804	0.083487
H	0.2165267168425880 0.6064223387406882 0.4530525769456193	0.104747
H	0.1505026683280225 0.6624217211032676 0.4530062979090743	0.118976
H	0.0707848249409679 0.7346404148060560 0.4421681458821596	0.105462
H	0.9293647238234246 0.8900913537710430 0.4424157550246969	0.106513
H	0.8540792899358689 0.9657683574050346 0.4530414236685114	0.096916
H	0.7924347377650189 0.0349167895975538 0.4528573035104804	0.083486
H	0.7165266958425898 0.1064223267406871 0.4530525769456193	0.104747
H	0.6505026683280224 0.1624217091032667 0.4530062979090743	0.118976
H	0.5707848099409701 0.2346403908060540 0.4421681458821596	0.105462
H	0.5706352761765754 0.3900913307710376 0.4424157550246969	0.106525
H	0.6459207100641311 0.4657684034050313 0.4530414236685114	0.096921
H	0.7075652622349811 0.5349167835975535 0.4528573035104804	0.083489
H	0.7834733041574102 0.6064223387406882 0.4530525769456193	0.104748
H	0.8494972896719741 0.6624217211032676 0.4530062979090743	0.118976
H	0.9292152320590262 0.7346404148060560 0.4421681458821596	0.105462
H	0.0706352611765708 0.8900913537710430 0.4424157550246969	0.106514
H	0.1459207410641300 0.9657683574050346 0.4530414236685114	0.096916
H	0.2075652212349809 0.0349167895975538 0.4528573035104804	0.083486
H	0.2834733041574102 0.1064223267406871 0.4530525769456193	0.104747
H	0.3494973316719776 0.1624217091032667 0.4530062979090743	0.118976
H	0.4292151490590300 0.2346403908060540 0.4421681458821596	0.105462
H	0.4293647238234244 0.6099086922289608 0.9424157340246986	0.106525
H	0.3540792899358690 0.5342315965949687 0.9530413986685127	0.096921
H	0.2924347997650172 0.4650832164024467 0.9528573265104788	0.083487
H	0.2165267168425880 0.3935776612593119 0.9530525329456228	0.104746
H	0.1505026683280225 0.3375783028967344 0.9530063479090785	0.118977
H	0.0707848249409679 0.2653595851939441 0.9421681618821467	0.105462
H	0.9293647238234246 0.1099086692289624 0.9424157340246986	0.106513
H	0.8540792899358689 0.0342316165949633 0.9530413986685127	0.096916
H	0.7924347377650189 0.9650832164024465 0.9528573265104788	0.083487
H	0.7165266958425898 0.8935777082593122 0.9530525329456228	0.104746
H	0.6505026683280224 0.8375783258967328 0.9530063479090785	0.118977
H	0.5707848099409701 0.7653595851939440 0.9421681618821467	0.105462
H	0.4284318705357048 0.3914313361957674 0.0511401638137012	0.113773
H	0.3529706559667272 0.4678479515653328 0.0458744132237902	0.096633
H	0.2928395281252804 0.5348263887311334 0.0474174064785099	0.082744
H	0.2169660630131699 0.6061668520130612 0.0461354904547272	0.104833
H	0.1515983027736479 0.6612520862824023 0.0440316158499172	0.118977
H	0.0714813796711793 0.7339964966851452 0.0511118615342177	0.113836
H	0.9284318705357048 0.8914313591957729 0.0511401638137012	0.113773
H	0.8529706559667272 0.9678479055653361 0.0458744132237902	0.096634
H	0.7928394661252823 0.0348263947311340 0.0474174064785099	0.082712
H	0.7169660420131717 0.1061668400130602 0.0461354904547272	0.104834
H	0.6515983027736477 0.1612520742824012 0.0440316158499172	0.118977
H	0.5714813646711816 0.2339964726851433 0.0511118615342177	0.113836
H	0.5715681294642952 0.6085686868042309 0.5511401938137037	0.113746
H	0.6470293440332728 0.5321520484346672 0.5458744132237904	0.096638
H	0.7071605338747177 0.4651736112688665 0.5474173444785121	0.082712
H	0.7830339579868283 0.3938331479869389 0.5461355214547333	0.104823
H	0.8484016552263488 0.3387479377175998 0.5440315848499182	0.118981
H	0.9285186773288148 0.2660035033148547 0.5511118925342168	0.113833
H	0.0715681144642904 0.1085686638042325 0.5511401938137037	0.113745
H	0.1470293750332718 0.0321520684346618 0.5458744132237904	0.096635
H	0.2071604928747178 0.9651736112688666 0.5474173444785121	0.082743
H	0.2830339579868283 0.8938331949869391 0.5461355214547333	0.104823
H	0.3484016972263522 0.8387479607175981 0.5440315848499182	0.118979
H	0.4285185943288186 0.7660035033148548 0.5511118925342168	0.113836
Cd	0.5000000000000000 0.6878486491746627 0.7182518502505071	0.761220
Cd	-0.0000000000000000 0.1878486491746626 0.7182518502505071	0.761220
Cd	0.5000000000000000 0.3121513508253374 0.2182518352505022	0.761229
Cd	-0.0000000000000000 0.8121513038253370 0.2182518352505022	0.761230
F	0.5000000000000000 0.6878869792152508 0.5173542786768677	-0.627060
F	-0.0000000000000000 0.1878870132152536 0.5173542786768677	-0.627059
F	0.5000000000000000 0.3121129977847508 0.0173542476768688	-0.627062
F	-0.0000000000000000 0.8121129747847525 0.0173542476768688	-0.627061
F	0.4479434879851984 0.7447739810660269 0.2612650150236773	-0.581440
F	0.5520631961709991 0.6252210882568052 0.2676262714320551	-0.578457
F	0.9479434879851985 0.2447740270660234 0.2612650150236773	-0.581438
F	0.0520631961709991 0.1252211002567991 0.2676262714320551	-0.578461
F	0.5520565120148015 0.2552259729339765 0.7612650300236750	-0.581442
F	0.4479368038290009 0.3747789117431947 0.7676262864320529	-0.578456
F	0.0520564910148034 0.7552260189339731 0.7612650300236750	-0.581457
F	0.9479368038290009 0.8747789577432057 0.7676262864320529	-0.578459
F	0.5520565120148015 0.7447739810660269 0.2612650150236773	-0.581440
F	0.4479368038290009 0.6252210882568052 0.2676262714320551	-0.578458
F	0.0520564910148034 0.2447740270660234 0.2612650150236773	-0.581456
F	0.9479368038290009 0.1252211002567991 0.2676262714320551	-0.578460
F	0.4479434879851984 0.2552259729339765 0.7612650300236750	-0.581442
F	0.5520631961709991 0.3747789117431947 0.7676262864320529	-0.578455
F	0.9479434879851985 0.7552260189339731 0.7612650300236750	-0.581439
F	0.0520631961709991 0.8747789577432057 0.7676262864320529	-0.578459
O	0.5000000000000000 0.6827304054455329 0.0713857677640464	-0.796187
O	-0.0000000000000000 0.1827304394455357 0.0713857677640464	-0.796189
O	0.5000000000000000 0.3172695715544688 0.5713857907640446	-0.796186
O	-0.0000000000000000 0.8172695485544704 0.5713857907640446	-0.796189
N	0.4324097163903243 0.6118742664235727 0.7466381174511590	-0.234776
N	0.5684536237001073 0.7630068474519140 0.7464770634133495	-0.240738
N	0.9324097573903241 0.1118742774235700 0.7466381174511590	-0.234794
N	0.0684536397001086 0.2630068004519137 0.7464770634133495	-0.240738
N	0.5675902836096758 0.3881257105764289 0.2466381024511614	-0.234811
N	0.4315463762998927 0.2369931755480843 0.2464770484133518	-0.240737
N	0.0675902836096757 0.8881257335764273 0.2466381024511614	-0.234827
N	0.9315463762998927 0.7369931525480860 0.2464770484133518	-0.240742
N	0.5675902836096758 0.6118742664235727 0.7466381174511590	-0.234777
N	0.4315463762998927 0.7630068474519140 0.7464770634133495	-0.240738
N	0.0675902836096757 0.1118742774235700 0.7466381174511590	-0.234793
N	0.9315463762998927 0.2630068004519137 0.7464770634133495	-0.240743
N	0.4324097163903243 0.3881257105764289 0.2466381024511614	-0.234810
N	0.5684536237001073 0.2369931755480843 0.2464770484133518	-0.240737
N	0.9324097573903241 0.8881257335764273 0.2466381024511614	-0.234828
N	0.0684536397001086 0.7369931525480860 0.2464770484133518	-0.240737
V	0.5000000000000000 0.6845300984078777 0.2249588466504621	2.165806
V	-0.0000000000000000 0.1845301444078743 0.2249588466504621	2.165828
V	0.5000000000000000 0.3154698555921257 0.7249588616504598	2.165806
V	-0.0000000000000000 0.8154699015921223 0.7249588616504598	2.165828
	  	
