#======================================================================

# CRYSTAL DATA

#----------------------------------------------------------------------

data_VESTA_phase_1


_pd_phase_name                         VOFFIVE_1_Zn
_cell_length_a                         11.38212
_cell_length_b                         11.38212
_cell_length_c                         7.74030
_cell_angle_alpha                      90
_cell_angle_beta                       90
_cell_angle_gamma                      90
_symmetry_space_group_name_H-M         P 1
_symmetry_Int_Tables_number            1

loop_
_symmetry_equiv_pos_as_xyz
   x, y, z

loop_
   _atom_site_label
   _atom_site_fract_x
   _atom_site_fract_y
   _atom_site_fract_z
   _atom_site_charge
C	0.2508712931579372 0.4578307417453976 0.3637265880103714	0.104447
C	0.1286735768566055 0.4569825045124052 0.3580813326497226	-0.176063
C	0.7491287498420629 0.5421693012546022 0.3637265880103714	0.104447
C	0.8713263691433906 0.5430174954875949 0.3580813326497226	-0.176063
C	0.5421693012546022 0.2508712931579372 0.3637265880103714	0.104447
C	0.5430174954875949 0.1286735768566054 0.3580813326497226	-0.176063
C	0.4578307417453976 0.7491287498420629 0.3637265880103714	0.104447
C	0.4569825045124052 0.8713263691433906 0.3580813326497226	-0.176063
C	0.7500433230811814 0.4564566701549730 0.6359198840720427	0.104683
C	0.8721705389032094 0.4561506119657840 0.6408263760728000	-0.177185
C	0.2499567199188185 0.5435433728450274 0.6359198840720427	0.104683
C	0.1278294070967859 0.5438493880342162 0.6408263760728000	-0.177185
C	0.4564566701549730 0.2499567199188185 0.6359198840720427	0.104684
C	0.4561506119657840 0.1278294070967859 0.6408263760728000	-0.177185
C	0.5435433728450274 0.7500433230811814 0.6359198840720427	0.104683
C	0.5438493880342162 0.8721705389032094 0.6408263760728000	-0.177185
C	0.0648166553445318 0.5002338677318653 0.4991526643238798	0.101073
C	0.9351833656554736 0.4997661322681351 0.4991526643238798	0.101073
C	0.4997661322681351 0.0648166553445318 0.4991526643238798	0.101073
C	0.5002338677318653 0.9351833656554736 0.4991526643238798	0.101073
H	0.3033940267143915 0.4244778098080338 0.2563226847304084	0.106482
H	0.0836279320480579 0.4205306158630670 0.2459559510923714	0.119982
H	0.6966059522856032 0.5755221901919665 0.2563226847304084	0.106482
H	0.9163720519519407 0.5794693841369326 0.2459559510923714	0.119982
H	0.5755221901919665 0.3033940267143915 0.2563226847304084	0.106482
H	0.5794693841369326 0.0836279320480579 0.2459559510923714	0.119983
H	0.4244778098080338 0.6966059522856032 0.2563226847304084	0.106482
H	0.4205306158630670 0.9163720519519407 0.2459559510923714	0.119983
H	0.6984200954428130 0.4223778622503153 0.7436654261942478	0.099184
H	0.9177028216804884 0.4201531063653931 0.7528274525930954	0.119994
H	0.3015798835571813 0.5776221377496850 0.7436654261942478	0.099184
H	0.0822971623195104 0.5798468936346070 0.7528274525930954	0.119994
H	0.4223778622503153 0.3015798835571813 0.7436654261942478	0.099184
H	0.4201531063653931 0.0822971623195104 0.7528274525930954	0.119995
H	0.5776221377496850 0.6984200954428130 0.7436654261942478	0.099184
H	0.5798468936346070 0.9177028216804884 0.7528274525930954	0.119995
Zn	0.5000000000000000 0.5000000000000000 0.5012355505198567	0.770656
V	0.5000000000000000 0.5000000000000000 -0.0187614938790974	2.259019
O	0.5000000000000000 0.5000000000000000 0.7673270052922351	-0.820171
F	0.5000000000000000 0.5000000000000000 0.2402809695712759	-0.613437
F	0.3864999126487734 0.3839092876797061 0.0057522221892649	-0.579165
F	0.6135001303512266 0.6160907553202938 0.0057522221892649	-0.579165
F	0.6160907553202938 0.3864999126487734 0.0057522221892649	-0.579165
F	0.3839092876797061 0.6135001303512266 0.0057522221892649	-0.579165
N	0.3102627642819371 0.5007478912346633 0.5002489391957269	-0.222451
N	0.6897372787180628 0.4992521087653368 0.5002489391957269	-0.222451
N	0.4992521087653368 0.3102627642819371 0.5002489391957269	-0.222451
N	0.5007478912346633 0.6897372787180628 0.5002489391957269	-0.222451
	  	
