#======================================================================

# CRYSTAL DATA

#----------------------------------------------------------------------

data_VESTA_phase_1


_pd_phase_name                         VOFFIVE_3_Ni
_cell_length_a                         14.09880
_cell_length_b                         14.09880
_cell_length_c                         7.68210
_cell_angle_alpha                      90
_cell_angle_beta                       90
_cell_angle_gamma                      90
_symmetry_space_group_name_H-M         P 1
_symmetry_Int_Tables_number            1

loop_
_symmetry_equiv_pos_as_xyz
   x, y, z

loop_
   _atom_site_label
   _atom_site_fract_x
   _atom_site_fract_y
   _atom_site_fract_z
   _atom_site_charge
C	0.2716821495804470 0.4506993047900097 0.6438751594878133	0.064619
C	0.2283178334195552 0.0493007002099942 0.6438751594878133	0.064619
C	0.2288013006737004 0.4505442079277294 0.3555713743178217	0.065456
C	0.2711986823263018 0.0494557970722746 0.3555713743178217	0.065456
C	0.0494557970722746 0.2711986823263018 0.3555713743178217	0.065458
C	0.4505442079277294 0.2288013006737004 0.3555713743178217	0.065458
C	0.4506993047900097 0.2716821495804470 0.6438751594878133	0.064622
C	0.0493007002099942 0.2283178334195552 0.6438751594878133	0.064622
C	0.9506993387900053 0.2283178334195552 0.6438751594878133	0.064636
C	0.5493006612099947 0.2716821495804470 0.6438751594878133	0.064636
C	0.5494557580722751 0.2288013006737004 0.3555713743178217	0.065469
C	0.9505442419277249 0.2711986823263018 0.3555713743178217	0.065469
C	0.7288012836736955 0.0494557970722746 0.3555713743178217	0.065458
C	0.7711987163263045 0.4505442079277294 0.3555713743178217	0.065458
C	0.7716821835804497 0.0493007002099942 0.6438751594878133	0.064622
C	0.7283178164195503 0.4506993047900097 0.6438751594878133	0.064623
C	0.4506993047900097 0.7283178164195503 0.6438751594878133	0.064619
C	0.0493007002099942 0.7716821835804497 0.6438751594878133	0.064619
C	0.0494557970722746 0.7288012836736955 0.3555713743178217	0.065457
C	0.4505442079277294 0.7711987163263045 0.3555713743178217	0.065457
C	0.2288013006737004 0.5494557580722751 0.3555713743178217	0.065471
C	0.2711986823263018 0.9505442419277249 0.3555713743178217	0.065471
C	0.2716821495804470 0.5493006612099947 0.6438751594878133	0.064639
C	0.2283178334195552 0.9506993387900053 0.6438751594878133	0.064639
C	0.7716821835804497 0.9506993387900053 0.6438751594878133	0.064636
C	0.7283178164195503 0.5493006612099947 0.6438751594878133	0.064636
C	0.7288012836736955 0.9505442419277249 0.3555713743178217	0.065469
C	0.7711987163263045 0.5494557580722751 0.3555713743178217	0.065469
C	0.5494557580722751 0.7711987163263045 0.3555713743178217	0.065470
C	0.9505442419277249 0.7288012836736955 0.3555713743178217	0.065470
C	0.9506993387900053 0.7716821835804497 0.6438751594878133	0.064639
C	0.5493006612099947 0.7283178164195503 0.6438751594878133	0.064639
H	0.2889010252137906 0.4121734477886307 0.7624698431197532	0.105369
H	0.2110989917862144 0.0878265612113666 0.7624698431197532	0.105369
H	0.2121659660103729 0.4110873512250863 0.2375759403090831	0.114477
H	0.2878340509896321 0.0889126577749109 0.2375759403090831	0.114477
H	0.0889126577749109 0.2878340509896321 0.2375759403090831	0.114477
H	0.4110873512250863 0.2121659660103729 0.2375759403090831	0.114477
H	0.4121734477886307 0.2889010252137906 0.7624698431197532	0.105368
H	0.0878265612113666 0.2110989917862144 0.7624698431197532	0.105368
H	0.9121734137886350 0.2110989917862144 0.7624698431197532	0.105368
H	0.5878265862113650 0.2889010252137906 0.7624698431197532	0.105368
H	0.5889126827749097 0.2121659660103729 0.2375759403090831	0.114476
H	0.9110873172250903 0.2878340509896321 0.2375759403090831	0.114476
H	0.7121659150103721 0.0889126577749109 0.2375759403090831	0.114477
H	0.7878340849896279 0.4110873512250863 0.2375759403090831	0.114477
H	0.7889010592137861 0.0878265612113666 0.7624698431197532	0.105368
H	0.7110989407862139 0.4121734477886307 0.7624698431197532	0.105368
H	0.4121734477886307 0.7110989407862139 0.7624698431197532	0.105369
H	0.0878265612113666 0.7889010592137861 0.7624698431197532	0.105369
H	0.0889126577749109 0.7121659150103721 0.2375759403090831	0.114477
H	0.4110873512250863 0.7878340849896279 0.2375759403090831	0.114477
H	0.2121659660103729 0.5889126827749097 0.2375759403090831	0.114476
H	0.2878340509896321 0.9110873172250903 0.2375759403090831	0.114476
H	0.2889010252137906 0.5878265862113650 0.7624698431197532	0.105367
H	0.2110989917862144 0.9121734137886350 0.7624698431197532	0.105367
H	0.7889010592137861 0.9121734137886350 0.7624698431197532	0.105367
H	0.7110989407862139 0.5878265862113650 0.7624698431197532	0.105367
H	0.7121659150103721 0.9110873172250903 0.2375759403090831	0.114476
H	0.7878340849896279 0.5889126827749097 0.2375759403090831	0.114476
H	0.5889126827749097 0.7878340849896279 0.2375759403090831	0.114476
H	0.9110873172250903 0.7121659150103721 0.2375759403090831	0.114476
H	0.9121734137886350 0.7889010592137861 0.7624698431197532	0.105367
H	0.5878265862113650 0.7110989407862139 0.7624698431197532	0.105367
Ni	0.2500000000000000 0.2500000000000000 0.5007651922867127	0.799629
Ni	0.7500000340000028 0.2500000000000000 0.5007651922867127	0.799630
Ni	0.2500000000000000 0.7500000340000028 0.5007651922867127	0.799630
Ni	0.7500000340000028 0.7500000340000028 0.5007651922867127	0.799631
V	0.2500000000000000 0.2500000000000000 -0.0221620408243522	2.244540
V	0.7500000340000028 0.2500000000000000 -0.0221620408243522	2.244546
V	0.2500000000000000 0.7500000340000028 -0.0221620408243522	2.244546
V	0.7500000340000028 0.7500000340000028 -0.0221620408243522	2.244552
O	0.2500000000000000 0.2500000000000000 0.7616903639724431	-0.847997
O	0.7500000340000028 0.2500000000000000 0.7616903639724431	-0.847998
O	0.2500000000000000 0.7500000340000028 0.7616903639724431	-0.847998
O	0.7500000340000028 0.7500000340000028 0.7616903639724431	-0.847999
F	0.2500000000000000 0.2500000000000000 0.2445044831918048	-0.634496
F	0.3419758332000587 0.3419758332000587 0.0037981289871238	-0.551410
F	0.1580241667999412 0.1580241667999412 0.0037981289871238	-0.551410
F	0.1580358408464961 0.3419641591535039 0.0049909378283280	-0.551184
F	0.3419641591535039 0.1580358408464961 0.0049909378283280	-0.551184
F	0.7500000340000028 0.2500000000000000 0.2445044831918048	-0.634497
F	0.8419641251535080 0.3419641591535039 0.0049909378283280	-0.551182
F	0.6580358748464920 0.1580358408464961 0.0049909378283280	-0.551182
F	0.6580242007999368 0.3419758332000587 0.0037981289871238	-0.551408
F	0.8419757992000632 0.1580241667999412 0.0037981289871238	-0.551408
F	0.2500000000000000 0.7500000340000028 0.2445044831918048	-0.634497
F	0.3419641591535039 0.8419641251535080 0.0049909378283280	-0.551182
F	0.1580358408464961 0.6580358748464920 0.0049909378283280	-0.551182
F	0.1580241667999412 0.8419757992000632 0.0037981289871238	-0.551408
F	0.3419758332000587 0.6580242007999368 0.0037981289871238	-0.551408
F	0.7500000340000028 0.7500000340000028 0.2445044831918048	-0.634497
F	0.8419757992000632 0.8419757992000632 0.0037981289871238	-0.551406
F	0.6580242007999368 0.6580242007999368 0.0037981289871238	-0.551406
F	0.6580358748464920 0.8419641251535080 0.0049909378283280	-0.551180
F	0.8419641251535080 0.6580358748464920 0.0049909378283280	-0.551180
N	0.4009193916746031 0.2501608565743550 0.4999136537011566	-0.189060
N	0.0990806003253962 0.2498391434256450 0.4999136537011566	-0.189060
N	0.2501608565743550 0.4009193916746031 0.4999136537011566	-0.189061
N	0.2498391434256450 0.0990806003253962 0.4999136537011566	-0.189061
N	0.9009194256746059 0.2498391434256450 0.4999136537011566	-0.189063
N	0.5990805743253941 0.2501608565743550 0.4999136537011566	-0.189063
N	0.7498391774256478 0.4009193916746031 0.4999136537011566	-0.189061
N	0.7501608905743579 0.0990806003253962 0.4999136537011566	-0.189061
N	0.4009193916746031 0.7498391774256478 0.4999136537011566	-0.189060
N	0.0990806003253962 0.7501608905743579 0.4999136537011566	-0.189060
N	0.2498391434256450 0.9009194256746059 0.4999136537011566	-0.189065
N	0.2501608565743550 0.5990805743253941 0.4999136537011566	-0.189065
N	0.9009194256746059 0.7501608905743579 0.4999136537011566	-0.189064
N	0.5990805743253941 0.7498391774256478 0.4999136537011566	-0.189063
N	0.7501608905743579 0.9009194256746059 0.4999136537011566	-0.189064
N	0.7498391774256478 0.5990805743253941 0.4999136537011566	-0.189064
	  	
