#======================================================================

# CRYSTAL DATA

#----------------------------------------------------------------------

data_VESTA_phase_1


_pd_phase_name                         VOFFIVE_15_Ni_i
_cell_length_a                         30.04018
_cell_length_b                         29.28193
_cell_length_c                         7.78546
_cell_angle_alpha                      90
_cell_angle_beta                       90
_cell_angle_gamma                      90
_symmetry_space_group_name_H-M         P 1
_symmetry_Int_Tables_number            1

loop_
_symmetry_equiv_pos_as_xyz
   x, y, z

loop_
   _atom_site_label
   _atom_site_fract_x
   _atom_site_fract_y
   _atom_site_fract_z
   _atom_site_charge
C	0.9319310771428777 0.1011827611913452 0.8991465198248036	0.110897
C	0.9002064958873344 0.0667597805932115 0.9045553395163570	-0.168266
C	0.7697962912173306 0.9362340663665218 0.9066200014098296	-0.113091
C	0.7358439934510508 0.9042340589558222 0.9063779577062248	-0.117261
C	0.5695820466482493 0.7430479951554060 0.8990698538298555	0.107766
C	0.6030677575495849 0.7756589541481416 0.9042799289994843	-0.172996
C	0.4319310131428725 0.6011827441913468 0.8991465198248036	0.110897
C	0.4002064638873321 0.5667597605932100 0.9045553395163570	-0.168266
C	0.2697962912173307 0.4362340343665198 0.9066200014098296	-0.113092
C	0.2358439934510511 0.4042340589558227 0.9063779577062248	-0.117261
C	0.0695820866482452 0.2430480111554074 0.8990698538298555	0.107797
C	0.1030677495495914 0.2756589371481435 0.9042799289994843	-0.172993
C	0.0680689668571259 0.8988172558086532 0.3991465198248036	0.110898
C	0.0997935361126679 0.9332402394067900 0.4045553395163571	-0.168266
C	0.2302037407826649 0.0637659746334776 0.4066200014098293	-0.113092
C	0.2641560225489502 0.0957659330441769 0.4063779577062251	-0.117261
C	0.4304179213517554 0.2569520048445939 0.3990698228298566	0.107797
C	0.3969322424504149 0.2243410458518585 0.4042799289994846	-0.173001
C	0.5680689228571223 0.3988172228086533 0.3991465198248036	0.110898
C	0.5997935041126656 0.4332402074067876 0.4045553395163571	-0.168266
C	0.7302037087826694 0.5637659336334782 0.4066200014098293	-0.113092
C	0.7641560065489492 0.5957659410441778 0.4063779577062251	-0.117261
C	0.9304179533517507 0.7569520048445940 0.3990698228298566	0.107766
C	0.8969322424504151 0.7243410458518584 0.4042799289994846	-0.172996
C	0.0676796681841139 0.1015829045941387 0.6014180645967957	0.109348
C	0.0994324322339562 0.0671439977400268 0.5943369248897764	-0.169074
C	0.2302083596596932 0.9362296225884996 0.5931652155229412	-0.113345
C	0.2641517440279081 0.9042347830503831 0.5934121268809476	-0.116973
C	0.4308057835226966 0.7426478215026090 0.6015231874481618	0.106016
C	0.3973166322866137 0.7753025017279827 0.5947219808622045	-0.170780
C	0.5676796241841098 0.6015828875941411 0.6014180645967957	0.109348
C	0.5994324002339532 0.5671439777400249 0.5943369248897764	-0.169074
C	0.7302083276596976 0.4362295905884967 0.5931652155229412	-0.113349
C	0.7641517280279069 0.4042347830503830 0.5934121268809476	-0.116975
C	0.9308058155226921 0.2426478375026103 0.6015231874481618	0.106154
C	0.8973166322866134 0.2753024847279850 0.5947219808622045	-0.170765
C	0.9323203758158902 0.8984171124058589 0.1014180885967905	0.109349
C	0.9005675997660468 0.9328560222599751 0.0943369008897820	-0.169074
C	0.7697916723403024 0.0637704184115005 0.0931652545229409	-0.113348
C	0.7358482719720931 0.0957652089496164 0.0934121498809458	-0.116975
C	0.5691941844773079 0.2573521784973912 0.1015231794481612	0.106109
C	0.6026833677133866 0.2246974982720172 0.0947219968622053	-0.170793
C	0.4323203118158844 0.3984170794058600 0.1014180885967905	0.109349
C	0.4005675677660437 0.4328559902599722 0.0943369008897820	-0.169074
C	0.2697916723403023 0.5637703774115004 0.0931652545229409	-0.113349
C	0.2358482719720932 0.5957652169496169 0.0934121498809458	-0.116975
C	0.0691942244773040 0.7573521784973910 0.1015231794481612	0.106015
C	0.1026833597133929 0.7246974982720173 0.0947219968622053	-0.170780
C	0.0676796681841139 0.8984171124058589 0.1014180885967905	0.109348
C	0.0994324322339562 0.9328560222599751 0.0943369008897820	-0.169074
C	0.2302083596596932 0.0637704184115005 0.0931652545229409	-0.113348
C	0.2641517440279081 0.0957652089496164 0.0934121498809458	-0.116976
C	0.4308057835226966 0.2573521784973912 0.1015231794481612	0.106109
C	0.3973166322866137 0.2246974982720172 0.0947219968622053	-0.170793
C	0.5676796241841098 0.3984170794058600 0.1014180885967905	0.109348
C	0.5994324002339532 0.4328559902599722 0.0943369008897820	-0.169074
C	0.7302083276596976 0.5637703774115004 0.0931652545229409	-0.113348
C	0.7641517280279069 0.5957652169496169 0.0934121498809458	-0.116975
C	0.9308058155226921 0.7573521784973910 0.1015231794481612	0.106015
C	0.8973166322866134 0.7246974982720173 0.0947219968622053	-0.170780
C	0.9323203758158902 0.1015829045941387 0.6014180645967957	0.109348
C	0.9005675997660468 0.0671439977400268 0.5943369248897764	-0.169074
C	0.7697916723403024 0.9362296225884996 0.5931652155229412	-0.113345
C	0.7358482719720931 0.9042347830503831 0.5934121268809476	-0.116973
C	0.5691941844773079 0.7426478215026090 0.6015231874481619	0.106015
C	0.6026833677133866 0.7753025017279827 0.5947219808622045	-0.170780
C	0.4323203118158844 0.6015828875941411 0.6014180645967957	0.109348
C	0.4005675677660437 0.5671439777400249 0.5943369248897764	-0.169074
C	0.2697916723403023 0.4362295905884967 0.5931652155229412	-0.113349
C	0.2358482719720932 0.4042347830503830 0.5934121268809476	-0.116976
C	0.0691942244773040 0.2426478375026103 0.6015231874481618	0.106154
C	0.1026833597133929 0.2753024847279850 0.5947219808622045	-0.170766
C	0.9319310771428777 0.8988172558086532 0.3991465198248036	0.110898
C	0.9002064958873344 0.9332402394067900 0.4045553395163571	-0.168266
C	0.7697962912173306 0.0637659746334776 0.4066200014098293	-0.113092
C	0.7358439934510508 0.0957659330441769 0.4063779577062251	-0.117261
C	0.5695820466482493 0.2569520048445939 0.3990698228298566	0.107797
C	0.6030677575495849 0.2243410458518585 0.4042799289994846	-0.173001
C	0.4319310131428725 0.3988172228086533 0.3991465198248036	0.110898
C	0.4002064638873321 0.4332402074067876 0.4045553395163571	-0.168267
C	0.2697962912173307 0.5637659336334782 0.4066200014098293	-0.113092
C	0.2358439934510511 0.5957659410441778 0.4063779577062251	-0.117261
C	0.0695820866482452 0.7569520048445940 0.3990698228298566	0.107765
C	0.1030677495495915 0.7243410458518584 0.4042799289994846	-0.172996
C	0.0680689668571259 0.1011827611913452 0.8991465198248036	0.110897
C	0.0997935361126679 0.0667597805932115 0.9045553395163570	-0.168266
C	0.2302037407826649 0.9362340663665218 0.9066200014098296	-0.113091
C	0.2641560225489502 0.9042340589558222 0.9063779577062248	-0.117261
C	0.4304179213517554 0.7430479951554060 0.8990698538298555	0.107766
C	0.3969322424504149 0.7756589541481416 0.9042799289994843	-0.172996
C	0.5680689228571223 0.6011827441913468 0.8991465198248036	0.110897
C	0.5997935041126656 0.5667597605932100 0.9045553395163570	-0.168266
C	0.7302037087826694 0.4362340343665198 0.9066200014098296	-0.113092
C	0.7641560065489492 0.4042340589558227 0.9063779577062248	-0.117261
C	0.9304179533517507 0.2430480111554074 0.8990698538298555	0.107797
C	0.8969322424504151 0.2756589371481435 0.9042799289994843	-0.172993
C	0.6545819562345081 0.8259296837971187 0.7485355233022221	-0.103750
C	0.8836984985634206 0.0490817763297831 0.7488640184600396	0.160979
C	0.8215508057078990 0.9856225002030197 0.7495463783115384	-0.099283
C	0.6204932555852363 0.7926541323517843 0.7489211559410922	0.168906
C	0.7872526245105657 0.9526667437634707 0.7498814487863267	0.122522
C	0.7183526382001395 0.8876250251536285 0.7498858134029547	0.139877
C	0.6840349369651201 0.8546611701391166 0.7495726495445358	-0.103973
C	0.8507146100525542 0.0146572122388387 0.7485408628609072	-0.105020
C	0.1545819082345110 0.3259297167971179 0.7485355233022221	-0.103747
C	0.3836984665634176 0.5490817513297847 0.7488640184600396	0.160979
C	0.3215508377079014 0.4856225332030256 0.7495463783115384	-0.099280
C	0.1204932315852344 0.2926541323517842 0.7489211559410923	0.168851
C	0.2872526565105606 0.4526667437634703 0.7498814487863267	0.122524
C	0.2183526062001367 0.3876250581536276 0.7498858134029547	0.139878
C	0.1840349529651214 0.3546611701391165 0.7495726495445358	-0.103973
C	0.3507146420525495 0.5146572482388416 0.7485408628609072	-0.105022
C	0.3454181077654902 0.1740702992028763 0.2485355073022204	-0.103750
C	0.1163015174365810 0.9509182486702153 0.2488640024600382	0.160980
C	0.1784491942921013 0.0143774807969753 0.2495463623115370	-0.099280
C	0.3795067764147661 0.2073458676482157 0.2489211399410913	0.168909
C	0.2127473594894407 0.0473332392365248 0.2498814327863254	0.122524
C	0.2816473937998632 0.1123749578463737 0.2498857974029536	0.139878
C	0.3159650630348795 0.1453388298608834 0.2495726335445348	-0.103973
C	0.1492853739474446 0.9853427517611584 0.2485408468609061	-0.105024
C	0.8454180437654919 0.6740703162028813 0.2485355073022204	-0.103749
C	0.6163015014365794 0.4509182486702154 0.2488640024600382	0.160980
C	0.6784491942921010 0.5143774997969803 0.2495463623115370	-0.099279
C	0.8795067444147637 0.7073458676482157 0.2489211399410913	0.168905
C	0.7127473754894343 0.5473332562365293 0.2498814327863254	0.122524
C	0.7816473617998605 0.6123749748463715 0.2498857974029536	0.139878
C	0.8159650630348799 0.6453388298608834 0.2495726335445348	-0.103973
C	0.6492853899474458 0.4853427847611576 0.2485408468609061	-0.105022
C	0.3454181077654902 0.8259296837971187 0.7485355233022221	-0.103750
C	0.1163015174365810 0.0490817763297831 0.7488640184600396	0.160979
C	0.1784491942921013 0.9856225002030197 0.7495463783115384	-0.099283
C	0.3795067764147661 0.7926541323517843 0.7489211559410923	0.168906
C	0.2127473594894407 0.9526667437634707 0.7498814487863267	0.122522
C	0.2816473937998632 0.8876250251536285 0.7498858134029547	0.139877
C	0.3159650630348795 0.8546611701391166 0.7495726495445358	-0.103972
C	0.1492853739474446 0.0146572122388387 0.7485408628609072	-0.105020
C	0.8454180437654919 0.3259297167971179 0.7485355233022221	-0.103747
C	0.6163015014365794 0.5490817513297847 0.7488640184600396	0.160979
C	0.6784491942921010 0.4856225332030256 0.7495463783115384	-0.099280
C	0.8795067444147637 0.2926541323517842 0.7489211559410923	0.168851
C	0.7127473754894343 0.4526667437634703 0.7498814487863267	0.122524
C	0.7816473617998605 0.3876250581536276 0.7498858134029547	0.139878
C	0.8159650630348799 0.3546611701391165 0.7495726495445358	-0.103974
C	0.6492853899474458 0.5146572482388416 0.7485408628609072	-0.105021
C	0.6545819562345081 0.1740702992028763 0.2485355073022204	-0.103750
C	0.8836984985634206 0.9509182486702153 0.2488640024600382	0.160980
C	0.8215508057078990 0.0143774807969753 0.2495463623115370	-0.099281
C	0.6204932555852363 0.2073458676482157 0.2489211399410913	0.168909
C	0.7872526245105657 0.0473332392365248 0.2498814327863254	0.122524
C	0.7183526382001395 0.1123749578463737 0.2498857974029536	0.139879
C	0.6840349369651201 0.1453388298608834 0.2495726335445348	-0.103973
C	0.8507146100525542 0.9853427517611584 0.2485408468609061	-0.105024
C	0.1545819082345110 0.6740703162028813 0.2485355073022204	-0.103749
C	0.3836984665634176 0.4509182486702154 0.2488640024600382	0.160980
C	0.3215508377079014 0.5143774997969803 0.2495463623115370	-0.099279
C	0.1204932315852344 0.7073458676482157 0.2489211399410913	0.168905
C	0.2872526565105606 0.5473332562365293 0.2498814327863254	0.122524
C	0.2183526062001367 0.6123749748463715 0.2498857974029536	0.139878
C	0.1840349529651214 0.6453388298608834 0.2495726335445348	-0.103973
C	0.3507146420525495 0.4853427847611576 0.2485408468609061	-0.105023
H	0.9452046924362456 0.1156022445450138 0.0173946898093098	0.090288
H	0.8882672522156932 0.0537357410422991 0.0271879002339970	0.119475
H	0.7834283625400734 0.9490398809177272 0.0270002824808405	0.106054
H	0.7222790425154118 0.8914518906498016 0.0267822273884343	0.115300
H	0.5555384856938771 0.7294354635088468 0.0173275572776161	0.090307
H	0.6156357608258347 0.7878450995846773 0.0270757500072078	0.125139
H	0.4452047574362408 0.6156022195450152 0.0173946898093098	0.090288
H	0.3882672522156929 0.5537357080422998 0.0271879002339970	0.119475
H	0.2834283305400776 0.4490399139177256 0.0270002824808405	0.106054
H	0.2222790425154118 0.3914518576498029 0.0267822273884343	0.115300
H	0.0555384376938802 0.2294354795088481 0.0173275572776161	0.090302
H	0.1156358088258387 0.2878450335846792 0.0270757500072078	0.125138
H	0.0547952595637573 0.8843977804549848 0.5173946748093127	0.090287
H	0.1117327477843070 0.9462642919577002 0.5271879002339970	0.119476
H	0.2165716694599224 0.0509600900822745 0.5270002824808406	0.106053
H	0.2777209574845880 0.1085481503501980 0.5267821963884284	0.115301
H	0.4444615793061176 0.2705645204911519 0.5173275652776166	0.090303
H	0.3843641751741669 0.2121549494153231 0.5270757770072130	0.125138
H	0.5547953075637544 0.3843977804549847 0.5173946748093127	0.090288
H	0.6117327477843068 0.4462642589577008 0.5271879002339970	0.119476
H	0.7165716374599266 0.5509600860822736 0.5270002824808406	0.106053
H	0.7777209574845882 0.6085481093501984 0.5267821963884284	0.115301
H	0.9444615143061229 0.7705645364911532 0.5173275652776166	0.090308
H	0.8843642391741653 0.7121549004153227 0.5270757770072130	0.125138
H	0.0539935354268146 0.1164002365568565 0.4844621764106653	0.102573
H	0.1111512830289459 0.0543660298864020 0.4710853653108308	0.119613
H	0.2165692605219656 0.9490464795919198 0.4728164511470220	0.106217
H	0.2777290136205834 0.8914447088421720 0.4730525466204852	0.115005
H	0.4452178447182938 0.7286034876997094 0.4845068118928764	0.101954
H	0.3849797803641096 0.7872602740160932 0.4712973689679533	0.124041
H	0.5539935834268112 0.6164002115568579 0.4844621764106653	0.102573
H	0.6111512830289461 0.5543659968864029 0.4710853653108308	0.119613
H	0.7165692285219696 0.4490465125919191 0.4728164511470220	0.106219
H	0.7777290136205838 0.3914446758421728 0.4730525466204852	0.115005
H	0.9452177797182992 0.2286035036997107 0.4845068118928764	0.101916
H	0.8849798443641080 0.2872602080160945 0.4712973689679533	0.124033
H	0.9460064165731888 0.8835997884431421 0.9844621454106657	0.102572
H	0.8888487169710539 0.9456340031135971 0.9710853343108317	0.119614
H	0.7834307714780304 0.0509534914080813 0.9728164191470190	0.106218
H	0.7222709863794162 0.1085553321578276 0.9730525466204851	0.115006
H	0.5547822202817008 0.2713964963002892 0.9845068118928766	0.101923
H	0.6150201556358920 0.2127397749839074 0.9712973689679537	0.124042
H	0.4460064815731831 0.3835997884431420 0.9844621454106657	0.102573
H	0.3888487169710541 0.4456339701135980 0.9710853343108317	0.119613
H	0.2834307394780342 0.5509534874080810 0.9728164191470190	0.106218
H	0.2222709863794166 0.6085552911578280 0.9730525466204851	0.115006
H	0.0547821722817039 0.7713965123002906 0.9845068118928766	0.101955
H	0.1150202036358960 0.7127397259839068 0.9712973689679537	0.124040
H	0.0539935354268146 0.8835997884431421 0.9844621454106657	0.102572
H	0.1111512830289459 0.9456340031135971 0.9710853343108317	0.119613
H	0.2165692605219656 0.0509534914080813 0.9728164191470190	0.106218
H	0.2777290136205834 0.1085553321578276 0.9730525466204851	0.115008
H	0.4452178447182938 0.2713964963002892 0.9845068118928766	0.101923
H	0.3849797803641096 0.2127397749839074 0.9712973689679537	0.124043
H	0.5539935834268112 0.3835997884431420 0.9844621454106657	0.102573
H	0.6111512830289461 0.4456339701135980 0.9710853343108317	0.119613
H	0.7165692285219696 0.5509534874080810 0.9728164191470190	0.106218
H	0.7777290136205838 0.6085552911578280 0.9730525466204851	0.115008
H	0.9452177797182992 0.7713965123002906 0.9845068118928766	0.101955
H	0.8849798443641080 0.7127397259839068 0.9712973689679537	0.124041
H	0.9460064165731888 0.1164002365568565 0.4844621764106653	0.102573
H	0.8888487169710539 0.0543660298864020 0.4710853653108308	0.119613
H	0.7834307714780304 0.9490464795919198 0.4728164511470220	0.106217
H	0.7222709863794162 0.8914447088421720 0.4730525466204852	0.115007
H	0.5547822202817008 0.7286034876997094 0.4845068118928764	0.101954
H	0.6150201556358920 0.7872602740160932 0.4712973689679533	0.124042
H	0.4460064815731831 0.6164002115568579 0.4844621764106653	0.102573
H	0.3888487169710541 0.5543659968864029 0.4710853653108308	0.119612
H	0.2834307394780342 0.4490465125919191 0.4728164511470220	0.106218
H	0.2222709863794166 0.3914446758421728 0.4730525466204852	0.115007
H	0.0547821722817039 0.2286035036997107 0.4845068118928764	0.101916
H	0.1150202036358960 0.2872602080160945 0.4712973689679533	0.124035
H	0.9452046924362456 0.8843977804549848 0.5173946748093127	0.090287
H	0.8882672522156932 0.9462642919577002 0.5271879002339970	0.119475
H	0.7834283625400734 0.0509600900822745 0.5270002824808406	0.106053
H	0.7222790425154118 0.1085481503501980 0.5267821963884284	0.115302
H	0.5555384856938771 0.2705645204911519 0.5173275652776166	0.090303
H	0.6156357608258347 0.2121549494153231 0.5270757770072130	0.125139
H	0.4452047574362408 0.3843977804549847 0.5173946748093127	0.090288
H	0.3882672522156929 0.4462642589577008 0.5271879002339970	0.119475
H	0.2834283305400776 0.5509600860822736 0.5270002824808406	0.106053
H	0.2222790425154118 0.6085481093501984 0.5267821963884284	0.115302
H	0.0555384376938802 0.7705645364911532 0.5173275652776166	0.090308
H	0.1156358088258387 0.7121549004153227 0.5270757770072130	0.125139
H	0.0547952595637573 0.1156022445450138 0.0173946898093098	0.090288
H	0.1117327477843070 0.0537357410422991 0.0271879002339970	0.119475
H	0.2165716694599224 0.9490398809177272 0.0270002824808405	0.106054
H	0.2777209574845880 0.8914518906498016 0.0267822273884343	0.115302
H	0.4444615793061176 0.7294354635088468 0.0173275572776161	0.090307
H	0.3843641751741669 0.7878450995846773 0.0270757500072078	0.125140
H	0.5547953075637544 0.6156022195450152 0.0173946898093098	0.090288
H	0.6117327477843068 0.5537357080422998 0.0271879002339970	0.119474
H	0.7165716374599266 0.4490399139177256 0.0270002824808405	0.106053
H	0.7777209574845882 0.3914518576498029 0.0267822273884343	0.115302
H	0.9444615143061229 0.2294354795088481 0.0173275572776161	0.090302
H	0.8843642391741653 0.2878450335846792 0.0270757500072078	0.125139
Ni	0.5000000000000000 0.6731273669687452 0.7503505987066001	0.834774
Ni	0.0000000000000000 0.1731273339687462 0.7503505987066001	0.834679
Ni	0.5000000000000000 0.3268726660312538 0.2503505827065989	0.834679
Ni	0.0000000000000000 0.8268726330312548 0.2503505827065989	0.834774
V	0.5000000000000000 0.6729232577728259 0.2275239851254068	2.248645
V	0.0000000000000000 0.1729233067728262 0.2275239851254068	2.248644
V	0.5000000000000000 0.3270766772271795 0.7275240011254082	2.248643
V	0.0000000000000000 0.8270767422271741 0.7275240011254082	2.248645
F	0.5000000000000000 0.7354108231867035 0.2554458724975421	-0.564027
F	0.5000000000000000 0.6104660599472825 0.2558245940815466	-0.560816
F	0.0000000000000000 0.2354107901867042 0.2554458724975421	-0.564020
F	0.0000000000000000 0.1104660679472834 0.2558245940815466	-0.560814
F	0.5000000000000000 0.2645891938132942 0.7554458884975431	-0.564022
F	0.5000000000000000 0.3895339070527182 0.7558246100815480	-0.560812
F	0.0000000000000000 0.7645891768132965 0.7554458884975431	-0.564029
F	0.0000000000000000 0.8895339400527175 0.7558246100815480	-0.560813
F	0.5608937196361552 0.6729345565011243 0.2557539430778354	-0.563425
F	0.0608937116361544 0.1729345395011264 0.2557539430778354	-0.563428
F	0.4391062803638447 0.3270654434988757 0.7557539590778367	-0.563428
F	0.9391062803638448 0.8270654434988757 0.7557539590778367	-0.563425
F	0.4391062803638447 0.6729345565011243 0.2557539430778354	-0.563425
F	0.9391062803638448 0.1729345395011264 0.2557539430778354	-0.563428
F	0.5608937196361552 0.3270654434988757 0.7557539590778367	-0.563428
F	0.0608937116361544 0.8270654434988757 0.7557539590778367	-0.563425
F	0.5000000000000000 0.6730300430002432 0.4967485372659876	-0.628756
F	0.0000000000000000 0.1730300430002432 0.4967485372659876	-0.628751
F	0.5000000000000000 0.3269699569997569 -0.0032514007340143	-0.628751
F	0.0000000000000000 0.8269699569997568 -0.0032514007340143	-0.628756
O	0.5000000000000000 0.6729380458197970 0.0140512167984381	-0.824444
O	0.0000000000000000 0.1729380458197970 0.0140512167984381	-0.824429
O	0.5000000000000000 0.3270619541802030 0.5140511977984401	-0.824429
O	0.0000000000000000 0.8270619541802030 0.5140511977984401	-0.824444
N	0.5527815521729657 0.7265954987245327 0.7509649760388885	-0.239044
N	0.9478259820748816 0.1185041735590552 0.7509447090012875	-0.238673
N	0.0527815921729619 0.2265955147245343 0.7509649760388885	-0.239102
N	0.4478259500748856 0.6185041495590532 0.7509447090012875	-0.238684
N	0.4472184158270389 0.2734044852754656 0.2509649600388871	-0.239092
N	0.0521740459251139 0.8814958504409468 0.2509446930012861	-0.238686
N	0.9472184478270343 0.7734045012754673 0.2509649600388871	-0.239042
N	0.5521740179251184 0.3814958174409476 0.2509446930012861	-0.238675
N	0.4472184158270389 0.7265954987245327 0.7509649760388885	-0.239044
N	0.0521740459251139 0.1185041735590552 0.7509447090012875	-0.238673
N	0.9472184478270343 0.2265955147245343 0.7509649760388885	-0.239102
N	0.5521740179251186 0.6185041495590532 0.7509447090012875	-0.238685
N	0.5527815521729657 0.2734044852754656 0.2509649600388871	-0.239093
N	0.9478259820748816 0.8814958504409468 0.2509446930012861	-0.238687
N	0.0527815921729619 0.7734045012754673 0.2509649600388871	-0.239042
N	0.4478259500748856 0.3814958174409476 0.2509446930012861	-0.238675
	  	
