#======================================================================

# CRYSTAL DATA

#----------------------------------------------------------------------

data_VESTA_phase_1


_pd_phase_name                         VOFFIVE_16_Fe_i
_cell_length_a                         25.23441
_cell_length_b                         25.23441
_cell_length_c                         7.63700
_cell_angle_alpha                      90
_cell_angle_beta                       90
_cell_angle_gamma                      90
_symmetry_space_group_name_H-M         P 1
_symmetry_Int_Tables_number            1

loop_
_symmetry_equiv_pos_as_xyz
   x, y, z

loop_
   _atom_site_label
   _atom_site_fract_x
   _atom_site_fract_y
   _atom_site_fract_z
   _atom_site_charge
C	0.4777917369929811 0.3861858823579201 0.3672468256914335	0.096013
C	0.4767850846988742 0.3311374163646641 0.3620947291473585	-0.173509
C	0.9550606771491503 0.6127875508832338 0.9435959680102598	-0.125260
C	0.9552248344855395 0.5577292190628864 0.9443356003569173	-0.123269
C	0.5222083010070220 0.6138141176420795 0.3672468256914335	0.096017
C	0.5232148773011293 0.6688625456353401 0.3620947291473585	-0.173512
C	0.0449393178508461 0.3872124491167664 0.9435959680102598	-0.125260
C	0.0447751705144575 0.4422707809371134 0.9443356003569173	-0.123269
C	0.6138141176420795 0.4777917369929811 0.3672468256914335	0.096017
C	0.6688625456353401 0.4767850846988742 0.3620947291473585	-0.173511
C	0.3872124491167664 0.9550606771491503 0.9435959680102598	-0.125260
C	0.4422707809371134 0.9552248344855395 0.9443356003569173	-0.123269
C	0.3861858823579201 0.5222083010070220 0.3672468256914335	0.096013
C	0.3311374163646641 0.5232148773011293 0.3620947291473585	-0.173509
C	0.6127875508832338 0.0449393178508461 0.9435959680102598	-0.125260
C	0.5577292190628864 0.0447751705144575 0.9443356003569173	-0.123269
C	0.5224137557986794 0.3860191081913297 0.6325931391167218	0.098960
C	0.5232529991608607 0.3310113643887445 0.6378080258918032	-0.176402
C	0.0449378968686934 0.6127876973225853 0.0564474525054989	-0.125099
C	0.0447748091051932 0.5577288599390793 0.0556934237452113	-0.123331
C	0.4775862822013240 0.6139808918086702 0.6325931391167218	0.098945
C	0.4767469628391431 0.6689885976112602 0.6378080258918032	-0.176342
C	0.9550620981313025 0.3872123026774148 0.0564474525054989	-0.125099
C	0.9552251958948038 0.4422711400609208 0.0556934237452113	-0.123330
C	0.3860191081913297 0.4775862822013240 0.6325931391167218	0.098960
C	0.3310113643887445 0.4767469628391431 0.6378080258918032	-0.176402
C	0.6127876973225853 0.9550620981313025 0.0564474525054989	-0.125099
C	0.5577288599390793 0.9552251958948038 0.0556934237452113	-0.123330
C	0.6139808918086702 0.5224137557986794 0.6325931391167218	0.098945
C	0.6689885976112602 0.5232529991608607 0.6378080258918032	-0.176342
C	0.3872123026774148 0.0449378968686934 0.0564474525054989	-0.125099
C	0.4422711400609208 0.0447748091051932 0.0556934237452113	-0.123331
C	0.5449379018686975 0.8872123026774147 0.5564474605054994	-0.127133
C	0.5447748041051962 0.9422711400609207 0.5556934597452141	-0.125903
C	0.0224137387986813 0.1139808828086728 0.1325931711167172	0.100833
C	0.0232530371608568 0.1689886166112576 0.1378080258918031	-0.174104
C	0.4550621371313025 0.1127876873225845 0.5564474605054994	-0.127132
C	0.4552251958948035 0.0577288499390783 0.5556934597452141	-0.125904
C	0.9775862062013174 0.8860191081913298 0.1325931711167172	0.100833
C	0.9767469628391433 0.8310113643887438 0.1378080258918031	-0.174104
C	0.1127876873225845 0.5449379018686975 0.5564474605054994	-0.127133
C	0.0577288499390783 0.5447748041051962 0.5556934597452141	-0.125903
C	0.8860191081913298 0.0224137387986813 0.1325931711167172	0.100833
C	0.8310113643887438 0.0232530371608568 0.1378080258918031	-0.174104
C	0.8872123026774147 0.4550621371313025 0.5564474605054994	-0.127133
C	0.9422711400609207 0.4552251958948035 0.5556934597452141	-0.125904
C	0.1139808828086728 0.9775862062013174 0.1325931711167172	0.100833
C	0.1689886166112576 0.9767469628391433 0.1378080258918031	-0.174104
C	0.4550607161491497 0.8872124491167662 0.4435959680102597	-0.127294
C	0.4552248344855391 0.9422707809371136 0.4443356003569165	-0.125841
C	0.9777916609929749 0.1138141086420828 0.8672468256914333	0.097226
C	0.9767850846988747 0.1688625646353377 0.8620946971473558	-0.171045
C	0.5449393228508497 0.1127875408832328 0.4435959680102597	-0.127293
C	0.5447751655144605 0.0577292090628859 0.4443356003569165	-0.125842
C	0.0222082840070243 0.8861858823579205 0.8672468256914333	0.097226
C	0.0232149153011259 0.8311374163646639 0.8620946971473558	-0.171045
C	0.8872124491167662 0.5449393228508497 0.4435959680102597	-0.127294
C	0.9422707809371136 0.5447751655144605 0.4443356003569165	-0.125842
C	0.1138141086420828 0.0222082840070243 0.8672468256914333	0.097226
C	0.1688625646353377 0.0232149153011259 0.8620946971473558	-0.171045
C	0.1127875408832328 0.4550607161491497 0.4435959680102597	-0.127294
C	0.0577292090628859 0.4552248344855391 0.4443356003569165	-0.125842
C	0.8861858823579205 0.9777916609929749 0.8672468256914333	0.097226
C	0.8311374163646639 0.9767850846988747 0.8620946971473558	-0.171045
C	0.4999554120078771 0.3021864722053709 0.4999142626996918	0.168831
C	0.4999469512181348 0.2459372697055023 0.4998669355839276	-0.110424
C	0.4999908216925187 0.1975642931204970 0.4999575912668683	-0.102522
C	0.5000005017565006 0.1413264331032106 0.5000147187099787	0.125597
C	0.4999999527082270 0.0291803039695824 0.5000082574487973	0.067646
C	0.0000445879921229 0.8021864922053723 -0.0000857373003081	0.176782
C	0.0000530487818651 0.7459372887055000 -0.0001330644160728	-0.120894
C	0.0000091783074812 0.6975642931204968 -0.0000424087331318	-0.087249
C	-0.0000005017565007 0.6413264331032106 0.0000147187099787	0.120404
C	0.0000000472917730 0.5291802999695823 0.0000082574487971	0.069763
C	0.5000445879921229 0.6978134697946317 0.4999142626996918	0.168823
C	0.5000530487818651 0.7540627492944960 0.4998669355839276	-0.110470
C	0.5000091783074808 0.8024356678795035 0.4999575912668683	-0.102501
C	0.4999994982434995 0.8586735278967897 0.5000147187099787	0.125594
C	0.5000000472917732 0.9708197390304174 0.5000082574487973	0.067641
C	-0.0000445879921229 0.1978135077946275 -0.0000857373003081	0.176782
C	-0.0000530487818651 0.2540627302944981 -0.0001330644160728	-0.120894
C	-0.0000091783074812 0.3024356868795014 -0.0000424087331318	-0.087249
C	0.0000005017565007 0.3586735668967891 0.0000147187099787	0.120404
C	-0.0000000472917730 0.4708197000304182 0.0000082574487971	0.069760
C	0.6978134697946317 0.4999554120078771 0.4999142626996918	0.168823
C	0.7540627492944960 0.4999469512181348 0.4998669355839276	-0.110470
C	0.8024356678795035 0.4999908216925187 0.4999575912668683	-0.102501
C	0.8586735278967897 0.5000005017565006 0.5000147187099787	0.125594
C	0.9708197390304174 0.4999999527082270 0.5000082574487973	0.067646
C	0.1978135077946275 0.0000445879921229 -0.0000857373003081	0.176782
C	0.2540627302944981 0.0000530487818651 -0.0001330644160728	-0.120894
C	0.3024356868795014 0.0000091783074812 -0.0000424087331318	-0.087249
C	0.3586735668967891 -0.0000005017565007 0.0000147187099787	0.120404
C	0.4708197000304182 0.0000000472917730 0.0000082574487971	0.069763
C	0.3021864722053709 0.5000445879921229 0.4999142626996918	0.168831
C	0.2459372697055023 0.5000530487818651 0.4998669355839276	-0.110424
C	0.1975642931204970 0.5000091783074808 0.4999575912668683	-0.102522
C	0.1413264331032106 0.4999994982434995 0.5000147187099787	0.125597
C	0.0291803039695824 0.5000000472917732 0.5000082574487973	0.067641
C	0.8021864922053723 -0.0000445879921229 -0.0000857373003081	0.176782
C	0.7459372887055000 -0.0000530487818651 -0.0001330644160728	-0.120894
C	0.6975642931204968 -0.0000091783074812 -0.0000424087331318	-0.087249
C	0.6413264331032106 0.0000005017565007 0.0000147187099787	0.120404
C	0.5291802999695823 -0.0000000472917730 0.0000082574487971	0.069760
H	0.4608381814927321 0.4096396276475768 0.2609693785578472	0.112536
H	0.4584182684303151 0.3108447485289444 0.2518798884789898	0.124546
H	0.9203133328206343 0.6344397265203552 0.8980184128581888	0.111747
H	0.9205037899294940 0.5364260548531058 0.8964931209470192	0.106800
H	0.5391618185072681 0.5903604103524193 0.2609693785578472	0.112535
H	0.5415817695696811 0.6891552704710606 0.2518798884789898	0.124547
H	0.0796866671793654 0.3655603114796404 0.8980184128581888	0.111747
H	0.0794961910705078 0.4635739451468940 0.8964931209470192	0.106800
H	0.5903604103524193 0.4608381814927321 0.2609693785578472	0.112535
H	0.6891552704710606 0.4584182684303151 0.2518798884789898	0.124547
H	0.3655603114796404 0.9203133328206343 0.8980184128581888	0.111747
H	0.4635739451468940 0.9205037899294940 0.8964931209470192	0.106800
H	0.4096396276475768 0.5391618185072681 0.2609693785578472	0.112536
H	0.3108447485289444 0.5415817695696811 0.2518798884789898	0.124546
H	0.6344397265203552 0.0796866671793654 0.8980184128581888	0.111747
H	0.5364260548531058 0.0794961910705078 0.8964931209470192	0.106800
H	0.5396978941035268 0.4092762869131286 0.7386979307720563	0.106564
H	0.5416176907399881 0.3107031897446556 0.7479738067341709	0.125673
H	0.0796879649218200 0.6344380733171505 0.1020093821970086	0.111740
H	0.0794969107653397 0.5364246751939863 0.1035192950027522	0.106827
H	0.4603021058964730 0.5907237510868670 0.7386979307720563	0.106565
H	0.4583823472600079 0.6892968292553497 0.7479738067341709	0.125661
H	0.9203120350781798 0.3655619646828455 0.1020093821970086	0.111740
H	0.9205030702346620 0.4635753248060138 0.1035192950027522	0.106827
H	0.4092762869131286 0.4603021058964730 0.7386979307720563	0.106564
H	0.3107031897446556 0.4583823472600079 0.7479738067341709	0.125673
H	0.6344380733171505 0.9203120350781798 0.1020093821970086	0.111740
H	0.5364246751939863 0.9205030702346620 0.1035192950027522	0.106827
H	0.5907237510868670 0.5396978941035268 0.7386979307720563	0.106565
H	0.6892968292553497 0.5416176907399881 0.7479738067341709	0.125661
H	0.3655619646828455 0.0796879649218200 0.1020093821970086	0.111740
H	0.4635753248060138 0.0794969107653397 0.1035192950027522	0.106827
H	0.5796879269218241 0.8655619266828495 0.6020094061970104	0.111256
H	0.5794968917653419 0.9635752868060177 0.6035193110027537	0.104667
H	0.0396978961035272 0.0907237130868712 0.2386979307720563	0.106113
H	0.0416176527399920 0.1892968102553443 0.2479738067341712	0.128932
H	0.4203120350781802 0.1344380443171516 0.6020094061970104	0.111256
H	0.4205031082346581 0.0364246921939841 0.6035193110027537	0.104667
H	0.9603021438964764 0.9092762869131290 0.2386979307720563	0.106113
H	0.9583823472600079 0.8107032087446534 0.2479738067341712	0.128932
H	0.1344380443171516 0.5796879269218241 0.6020094061970104	0.111256
H	0.0364246921939841 0.5794968917653419 0.6035193110027537	0.104667
H	0.9092762869131290 0.0396978961035272 0.2386979307720563	0.106113
H	0.8107032087446534 0.0416176527399920 0.2479738067341712	0.128932
H	0.8655619266828495 0.4203120350781802 0.6020094061970104	0.111256
H	0.9635752868060177 0.4205031082346581 0.6035193110027537	0.104667
H	0.0907237130868712 0.9603021438964764 0.2386979307720563	0.106113
H	0.1892968102553443 0.9583823472600079 0.2479738067341712	0.128932
H	0.4203133328206347 0.8655602734796448 0.3980183808581863	0.111267
H	0.4205038279294903 0.9635739071468982 0.3964931849470174	0.104640
H	0.9608382194927351 0.0903603723524233 0.7609693945578484	0.111504
H	0.9584182684303150 0.1891552514710557 0.7518798564789944	0.127856
H	0.5796866291793696 0.1344396975203568 0.3980183808581863	0.111267
H	0.5794961720705100 0.0364260718531036 0.3964931849470174	0.104640
H	0.0391618205072681 0.9096396276475768 0.7609693945578484	0.111504
H	0.0415817315696849 0.8108447675289425 0.7518798564789944	0.127856
H	0.8655602734796448 0.5796866291793696 0.3980183808581863	0.111267
H	0.9635739071468982 0.5794961720705100 0.3964931849470174	0.104640
H	0.0903603723524233 0.0391618205072681 0.7609693945578484	0.111504
H	0.1891552514710557 0.0415817315696849 0.7518798564789944	0.127856
H	0.1344396975203568 0.4203133328206347 0.3980183808581863	0.111267
H	0.0364260718531036 0.4205038279294903 0.3964931849470174	0.104640
H	0.9096396276475768 0.9608382194927351 0.7609693945578484	0.111504
H	0.8108447675289425 0.9584182684303150 0.7518798564789944	0.127856
Fe	0.5000000000000000 0.5000000000000000 0.4993121875685519	0.614832
Fe	0.0000000000000000 -0.0000000000000000 -0.0006878124314482	0.754550
V	0.5000000000000000 0.5000000000000000 -0.0209853080650780	2.240533
V	0.0000000000000000 -0.0000000000000000 0.4790146919349221	2.243482
F	0.5000000000000000 0.5000000000000000 0.2432942571436092	-0.575329
F	0.0000000000000000 -0.0000000000000000 0.7432942091436053	-0.588535
F	0.5521255441188823 0.5509939360883067 0.0048286425736015	-0.596298
F	0.0509939080883109 0.0521255161188871 0.5048286425736015	-0.594358
F	0.4478744938811137 0.4490061019116899 0.0048286425736015	-0.596297
F	0.9490060639116933 0.9478744558811177 0.5048286425736015	-0.594358
F	0.4490061019116899 0.5521255441188823 0.0048286425736015	-0.596298
F	0.9478744558811177 0.0509939080883109 0.5048286425736015	-0.594358
F	0.5509939360883067 0.4478744938811137 0.0048286425736015	-0.596298
F	0.0521255161188871 0.9490060639116933 0.5048286425736015	-0.594358
O	0.5000000000000000 0.5000000000000000 0.7620910314204085	-0.827653
O	0.0000000000000000 -0.0000000000000000 0.2620909994204062	-0.858838
N	0.5001176602880620 0.4133411694368465 0.5001051376870228	-0.179100
N	-0.0001176602880624 0.9133412074368498 0.0001051376870228	-0.196448
N	0.4998823397119379 0.5866588305631534 0.5001051376870228	-0.179098
N	0.0001176602880624 0.0866588025631512 0.0001051376870228	-0.196448
N	0.5866588305631534 0.5001176602880620 0.5001051376870228	-0.179098
N	0.0866588025631512 -0.0001176602880624 0.0001051376870228	-0.196448
N	0.4133411694368465 0.4998823397119379 0.5001051376870228	-0.179100
N	0.9133412074368498 0.0001176602880624 0.0001051376870228	-0.196448
	  	
