#======================================================================

# CRYSTAL DATA

#----------------------------------------------------------------------

data_VESTA_phase_1


_pd_phase_name                         VOFFIVE_15_Fe_i
_cell_length_a                         29.71145
_cell_length_b                         28.55653
_cell_length_c                         8.01851
_cell_angle_alpha                      90
_cell_angle_beta                       90
_cell_angle_gamma                      90
_symmetry_space_group_name_H-M         P 1
_symmetry_Int_Tables_number            1

loop_
_symmetry_equiv_pos_as_xyz
   x, y, z

loop_
   _atom_site_label
   _atom_site_fract_x
   _atom_site_fract_y
   _atom_site_fract_z
   _atom_site_charge
C	0.9348112585491879 0.1042280913519858 0.8960431016103936	0.104018
C	0.9023945104810497 0.0693647409686908 0.8995783218911633	-0.165424
C	0.7702610688428445 0.9361435044893323 0.9014452799554677	-0.117602
C	0.7356899594021831 0.9035900133473507 0.9011447843657379	-0.114754
C	0.5666312864943237 0.7397039375629926 0.8955104153427637	0.100462
C	0.6004141977455292 0.7731311266013684 0.8990232550485040	-0.168227
C	0.4348111945491823 0.6042280743519880 0.8960431016103936	0.103987
C	0.4023944784810477 0.5693647209686893 0.8995783218911633	-0.165425
C	0.2702610688428449 0.4361434724893296 0.9014452799554677	-0.117509
C	0.2356899594021832 0.4035900133473506 0.9011447843657379	-0.114738
C	0.0666313264943194 0.2397039535629940 0.8955104153427637	0.100462
C	0.1004141897455356 0.2731311096013704 0.8990232550485040	-0.168228
C	0.0651887854508160 0.8957719256480120 0.3960431016103940	0.103987
C	0.0976055215189523 0.9306352790313107 0.3995783218911628	-0.165426
C	0.2297389631571507 0.0638565365106675 0.4014452799554676	-0.117509
C	0.2643100565978180 0.0964099786526488 0.4011447843657372	-0.114738
C	0.4333686815056814 0.2602960624370075 0.3955103843427649	0.100461
C	0.3995858022544709 0.2268688733986315 0.3990232550485044	-0.168227
C	0.5651887414508121 0.3957718926480127 0.3960431016103940	0.104018
C	0.5976054895189503 0.4306352470313082 0.3995783218911628	-0.165424
C	0.7297389311571555 0.5638564955106677 0.4014452799554676	-0.117601
C	0.7643100405978169 0.5964099866526493 0.4011447843657372	-0.114754
C	0.9333687135056763 0.7602960624370074 0.3955103843427649	0.100462
C	0.8995858022544708 0.7268688733986316 0.3990232550485044	-0.168227
C	0.0644688191692205 0.1050112299843371 0.6063104700632990	0.100556
C	0.0969167629112028 0.0701307039559955 0.5989961215697733	-0.162873
C	0.2297364093834308 0.9361477209076192 0.5972344549940988	-0.116693
C	0.2642928885573789 0.9036085887480227 0.5974378766131351	-0.116695
C	0.4340749436402765 0.7390223570823518 0.6061069256810364	0.099917
C	0.4002359011307101 0.7724482967069786 0.5991931605500723	-0.168297
C	0.5644687751692168 0.6050112129843395 0.6063104700632990	0.100556
C	0.5969167309111999 0.5701306839559938 0.5989961215697733	-0.162869
C	0.7297363773834350 0.4361476889076168 0.5972344549940988	-0.116684
C	0.7642928725573774 0.4036085887480231 0.5974378766131351	-0.116698
C	0.9340749756402716 0.2390223730823526 0.6061069256810364	0.099917
C	0.9002359011307098 0.2724482797069809 0.5991931605500723	-0.168297
C	0.9355312248307832 0.8949887870156605 0.1063104940632939	0.100557
C	0.9030832690888001 0.9298693160440062 0.0989960975697782	-0.162875
C	0.7702636226165650 0.0638523200923804 0.0972344939940986	-0.116684
C	0.7357071274426226 0.0963914032519765 0.0974378996131331	-0.116698
C	0.5659250243597284 0.2609776429176489 0.1061069176810359	0.099916
C	0.5997640988692902 0.2275517032930214 0.0991931765500731	-0.168297
C	0.4355311608307777 0.3949887540156616 0.1063104940632939	0.100556
C	0.4030832370887971 0.4298692840440033 0.0989960975697782	-0.162879
C	0.2702636226165648 0.5638522790923808 0.0972344939940986	-0.116693
C	0.2357071274426227 0.5963914112519773 0.0974378996131331	-0.116695
C	0.0659250643597244 0.7609776429176482 0.1061069176810359	0.099916
C	0.0997640908692965 0.7275517032930214 0.0991931765500731	-0.168297
C	0.0644688191692205 0.8949887870156605 0.1063104940632939	0.100560
C	0.0969167629112028 0.9298693160440062 0.0989960975697782	-0.162879
C	0.2297364093834308 0.0638523200923804 0.0972344939940986	-0.116683
C	0.2642928885573789 0.0963914032519765 0.0974378996131331	-0.116699
C	0.4340749436402765 0.2609776429176489 0.1061069176810359	0.099918
C	0.4002359011307101 0.2275517032930214 0.0991931765500731	-0.168297
C	0.5644687751692168 0.3949887540156616 0.1063104940632939	0.100561
C	0.5969167309111999 0.4298692840440033 0.0989960975697782	-0.162876
C	0.7297363773834350 0.5638522790923808 0.0972344939940986	-0.116695
C	0.7642928725573774 0.5963914112519773 0.0974378996131331	-0.116696
C	0.9340749756402716 0.7609776429176482 0.1061069176810359	0.099918
C	0.9002359011307098 0.7275517032930214 0.0991931765500731	-0.168297
C	0.9355312248307832 0.1050112299843371 0.6063104700632990	0.100560
C	0.9030832690888001 0.0701307039559955 0.5989961215697733	-0.162870
C	0.7702636226165650 0.9361477209076192 0.5972344549940988	-0.116695
C	0.7357071274426226 0.9036085887480227 0.5974378766131351	-0.116696
C	0.5659250243597284 0.7390223570823518 0.6061069256810364	0.099919
C	0.5997640988692902 0.7724482967069786 0.5991931605500723	-0.168297
C	0.4355311608307777 0.6050112129843395 0.6063104700632990	0.100559
C	0.4030832370887971 0.5701306839559938 0.5989961215697733	-0.162873
C	0.2702636226165648 0.4361476889076168 0.5972344549940988	-0.116683
C	0.2357071274426227 0.4036085887480231 0.5974378766131351	-0.116698
C	0.0659250643597244 0.2390223730823526 0.6061069256810364	0.099918
C	0.0997640908692965 0.2724482797069809 0.5991931605500723	-0.168297
C	0.9348112585491879 0.8957719256480120 0.3960431016103940	0.104021
C	0.9023945104810497 0.9306352790313107 0.3995783218911628	-0.165423
C	0.7702610688428445 0.0638565365106675 0.4014452799554676	-0.117495
C	0.7356899594021831 0.0964099786526488 0.4011447843657372	-0.114745
C	0.5666312864943237 0.2602960624370075 0.3955103843427649	0.100463
C	0.6004141977455292 0.2268688733986315 0.3990232550485044	-0.168227
C	0.4348111945491823 0.3957718926480127 0.3960431016103940	0.103990
C	0.4023944784810477 0.4306352470313082 0.3995783218911628	-0.165425
C	0.2702610688428449 0.5638564955106677 0.4014452799554676	-0.117615
C	0.2356899594021832 0.5964099866526493 0.4011447843657372	-0.114748
C	0.0666313264943194 0.7602960624370074 0.3955103843427649	0.100463
C	0.1004141897455356 0.7268688733986316 0.3990232550485044	-0.168227
C	0.0651887854508160 0.1042280913519858 0.8960431016103936	0.103989
C	0.0976055215189523 0.0693647409686908 0.8995783218911633	-0.165424
C	0.2297389631571507 0.9361435044893323 0.9014452799554677	-0.117615
C	0.2643100565978180 0.9035900133473507 0.9011447843657379	-0.114748
C	0.4333686815056814 0.7397039375629926 0.8955104153427637	0.100464
C	0.3995858022544709 0.7731311266013684 0.8990232550485040	-0.168227
C	0.5651887414508121 0.6042280743519880 0.8960431016103936	0.104021
C	0.5976054895189503 0.5693647209686893 0.8995783218911633	-0.165423
C	0.7297389311571555 0.4361434724893296 0.9014452799554677	-0.117495
C	0.7643100405978169 0.4035900133473506 0.9011447843657379	-0.114745
C	0.9333687135056763 0.2397039535629940 0.8955104153427637	0.100464
C	0.8995858022544708 0.2731311096013704 0.8990232550485040	-0.168227
C	0.6525522021576474 0.8243812981310529 0.7470902225892881	-0.106278
C	0.8856570167192944 0.0514835839788287 0.7481520371523732	0.159611
C	0.8227267861849917 0.9866637903403804 0.7488062423109667	-0.099923
C	0.6179832601408912 0.7904887745347402 0.7480598290108998	0.167279
C	0.7879945425991717 0.9529587757231958 0.7493376508883201	0.127029
C	0.7177905325681385 0.8867692960239562 0.7492444901841312	0.137811
C	0.6826888845636732 0.8534520549121394 0.7486523636259194	-0.100924
C	0.8522127842313851 0.0164331271746416 0.7471223439881132	-0.106848
C	0.1525521541576502 0.3243813311310524 0.7470902225892881	-0.106277
C	0.3856569847192917 0.5514835589788301 0.7481520371523732	0.159619
C	0.3227268181849944 0.4866638233403872 0.7488062423109667	-0.099922
C	0.1179832361408891 0.2904887745347405 0.7480598290108998	0.167279
C	0.2879945745991672 0.4529587757231961 0.7493376508883201	0.126984
C	0.2177905005681356 0.3867693290239551 0.7492444901841312	0.137807
C	0.1826889005636745 0.3534520549121399 0.7486523636259194	-0.100923
C	0.3522128162313807 0.5164331631746444 0.7471223439881132	-0.106850
C	0.3474478618423515 0.1756186848689421 0.2470902065892875	-0.106276
C	0.1143429992807072 0.9485164410211699 0.2481520211523717	0.159620
C	0.1772732138150085 0.0133361906596142 0.2488062263109654	-0.099921
C	0.3820167718591117 0.2095112254652594 0.2480598130108985	0.167279
C	0.2120054414008341 0.0470412072767990 0.2493376348883187	0.126984
C	0.2822094994318642 0.1132306869760463 0.2492444741841305	0.137808
C	0.3173111154363270 0.1465479450878603 0.2486523476259177	-0.100924
C	0.1477871997686136 0.9835668368253556 0.2471223279881112	-0.106852
C	0.8474477978423526 0.6756187018689471 0.2470902065892875	-0.106277
C	0.6143429832807056 0.4485164410211698 0.2481520211523717	0.159612
C	0.6772732138150083 0.5133362096596196 0.2488062263109654	-0.099921
C	0.8820167398591088 0.7095112254652598 0.2480598130108985	0.167279
C	0.7120054574008283 0.5470412242768042 0.2493376348883187	0.127029
C	0.7822094674318615 0.6132307039760438 0.2492444741841305	0.137812
C	0.8173111154363268 0.6465479450878606 0.2486523476259177	-0.100924
C	0.6477872157686149 0.4835668698253545 0.2471223279881112	-0.106850
C	0.3474478618423515 0.8243812981310529 0.7470902225892881	-0.106278
C	0.1143429992807072 0.0514835839788287 0.7481520371523732	0.159618
C	0.1772732138150085 0.9866637903403804 0.7488062423109667	-0.099926
C	0.3820167718591117 0.7904887745347402 0.7480598290108998	0.167279
C	0.2120054414008341 0.9529587757231958 0.7493376508883201	0.127032
C	0.2822094994318642 0.8867692960239562 0.7492444901841312	0.137810
C	0.3173111154363270 0.8534520549121394 0.7486523636259194	-0.100924
C	0.1477871997686136 0.0164331271746416 0.7471223439881132	-0.106846
C	0.8474477978423526 0.3243813311310524 0.7470902225892881	-0.106277
C	0.6143429832807056 0.5514835589788301 0.7481520371523732	0.159611
C	0.6772732138150083 0.4866638233403872 0.7488062423109667	-0.099919
C	0.8820167398591088 0.2904887745347405 0.7480598290108998	0.167279
C	0.7120054574008283 0.4529587757231961 0.7493376508883201	0.126982
C	0.7822094674318615 0.3867693290239551 0.7492444901841312	0.137808
C	0.8173111154363268 0.3534520549121399 0.7486523636259194	-0.100923
C	0.6477872157686149 0.5164331631746444 0.7471223439881132	-0.106852
C	0.6525522021576474 0.1756186848689421 0.2470902065892875	-0.106276
C	0.8856570167192944 0.9485164410211699 0.2481520211523717	0.159612
C	0.8227267861849917 0.0133361906596142 0.2488062263109654	-0.099918
C	0.6179832601408912 0.2095112254652594 0.2480598130108985	0.167279
C	0.7879945425991717 0.0470412072767990 0.2493376348883187	0.126981
C	0.7177905325681385 0.1132306869760463 0.2492444741841305	0.137809
C	0.6826888845636732 0.1465479450878603 0.2486523476259177	-0.100924
C	0.8522127842313851 0.9835668368253556 0.2471223279881112	-0.106854
C	0.1525521541576502 0.6756187018689471 0.2470902065892875	-0.106276
C	0.3856569847192917 0.4485164410211698 0.2481520211523717	0.159620
C	0.3227268181849944 0.5133362096596196 0.2488062263109654	-0.099924
C	0.1179832361408891 0.7095112254652598 0.2480598130108985	0.167279
C	0.2879945745991672 0.5470412242768042 0.2493376348883187	0.127031
C	0.2177905005681356 0.6132307039760438 0.2492444741841305	0.137811
C	0.1826889005636745 0.6465479450878606 0.2486523476259177	-0.100925
C	0.3522128162313807 0.4835668698253545 0.2471223279881112	-0.106849
H	0.9481524557928218 0.1186290393723207 0.0112837575520200	0.089035
H	0.8901729567080151 0.0561603331652693 0.0185800685454867	0.120591
H	0.7841315117322317 0.9490967903713801 0.0185284406662030	0.106629
H	0.7219373626605859 0.8906049134989349 0.0182341604718464	0.114842
H	0.5527991724457618 0.7258291686367666 0.0107467562837019	0.087836
H	0.6131260295852561 0.7855752110696781 0.0182121027656090	0.124586
H	0.4481525207928165 0.6186290143723220 0.0112837575520200	0.089036
H	0.3901729567080153 0.5561603001652698 0.0185800685454867	0.120606
H	0.2841314797322358 0.4490968233713791 0.0185284406662030	0.106562
H	0.2219373626605861 0.3906048804989357 0.0182341604718464	0.114839
H	0.0527991244457650 0.2258291846367682 0.0107467562837019	0.087836
H	0.1131260775852604 0.2855751450696802 0.0182121027656090	0.124586
H	0.0518474962071813 0.8813709856276780 0.5112837425520227	0.089035
H	0.1098270432919847 0.9438396998347302 0.5185800685454870	0.120607
H	0.2158685202677641 0.0509031806286213 0.5185284406662032	0.106561
H	0.2780626373394141 0.1093951275010651 0.5182341294718400	0.114840
H	0.4472008925542327 0.2741708153632318 0.5107467642837019	0.087836
H	0.3868739064147453 0.2144248379303220 0.5182121297656075	0.124585
H	0.5518475442071782 0.3813709856276779 0.5112837425520227	0.089034
H	0.6098270432919849 0.4438396668347306 0.5185800685454870	0.120592
H	0.7158684882677683 0.5509031766286208 0.5185284406662032	0.106628
H	0.7780626373394141 0.6093950865010651 0.5182341294718400	0.114843
H	0.9472008275542382 0.7741708313632334 0.5107467642837019	0.087836
H	0.8868739704147439 0.7144247889303219 0.5182121297656075	0.124585
H	0.0503907522659177 0.1201802115765905 0.4933448665584992	0.099215
H	0.1085661482004817 0.0575746557938614 0.4782965177869508	0.121230
H	0.2158413156628233 0.9491286014453207 0.4802311167909468	0.106540
H	0.2780561818811670 0.8906284768060333 0.4803634576963027	0.114985
H	0.4486089928308580 0.7244808740341447 0.4928707965455674	0.098742
H	0.3880591367215280 0.7843270970674969 0.4784319763277773	0.125482
H	0.5503908002659148 0.6201801865765921 0.4933448665584992	0.099215
H	0.6085661482004820 0.5575746227938625 0.4782965177869508	0.121230
H	0.7158412836628282 0.4491286344453200 0.4802311167909468	0.106539
H	0.7780561818811670 0.3906284438060340 0.4803634576963027	0.114986
H	0.9486089278308633 0.2244808900341462 0.4928707965455674	0.098742
H	0.8880592007215261 0.2843270310674985 0.4784319763277773	0.125482
H	0.9496091997340852 0.8798198134234079 0.9933448355584998	0.099215
H	0.8914338517995180 0.9424253772061375 0.9782964867869517	0.121236
H	0.7841587163371718 0.0508713695546804 0.9802310847909448	0.106539
H	0.7219438181188330 0.1093715641939667 0.9803634576963032	0.114987
H	0.5513910721691367 0.2755191099658539 0.9928707965455674	0.098742
H	0.6119407992784739 0.2156729519325034 0.9784319763277771	0.125481
H	0.4496092647340802 0.3798198134234084 0.9933448355584998	0.099215
H	0.3914338517995183 0.4424253442061384 0.9782964867869517	0.121236
H	0.2841586843371764 0.5508713655546801 0.9802310847909448	0.106539
H	0.2219438181188331 0.6093715231939667 0.9803634576963032	0.114986
H	0.0513910241691397 0.7755191259658553 0.9928707965455675	0.098743
H	0.1119408472784777 0.7156729029325031 0.9784319763277771	0.125481
H	0.0503907522659177 0.8798198134234079 0.9933448355584998	0.099215
H	0.1085661482004817 0.9424253772061375 0.9782964867869517	0.121236
H	0.2158413156628233 0.0508713695546804 0.9802310847909448	0.106540
H	0.2780561818811670 0.1093715641939667 0.9803634576963032	0.114988
H	0.4486089928308580 0.2755191099658539 0.9928707965455674	0.098742
H	0.3880591367215280 0.2156729519325034 0.9784319763277771	0.125481
H	0.5503908002659148 0.3798198134234084 0.9933448355584998	0.099215
H	0.6085661482004820 0.4424253442061384 0.9782964867869517	0.121236
H	0.7158412836628282 0.5508713655546801 0.9802310847909448	0.106539
H	0.7780561818811670 0.6093715231939667 0.9803634576963032	0.114988
H	0.9486089278308633 0.7755191259658553 0.9928707965455674	0.098742
H	0.8880592007215261 0.7156729029325031 0.9784319763277771	0.125481
H	0.9496091997340852 0.1201802115765905 0.4933448665584992	0.099215
H	0.8914338517995180 0.0575746557938614 0.4782965177869508	0.121230
H	0.7841587163371718 0.9491286014453207 0.4802311167909468	0.106540
H	0.7219438181188330 0.8906284768060333 0.4803634576963027	0.114987
H	0.5513910721691367 0.7244808740341447 0.4928707965455674	0.098742
H	0.6119407992784739 0.7843270970674969 0.4784319763277773	0.125482
H	0.4496092647340802 0.6201801865765921 0.4933448665584992	0.099215
H	0.3914338517995183 0.5575746227938625 0.4782965177869508	0.121230
H	0.2841586843371764 0.4491286344453200 0.4802311167909468	0.106541
H	0.2219438181188331 0.3906284438060340 0.4803634576963027	0.114987
H	0.0513910241691397 0.2244808900341462 0.4928707965455674	0.098742
H	0.1119408472784777 0.2843270310674985 0.4784319763277773	0.125482
H	0.9481524557928218 0.8813709856276780 0.5112837425520227	0.089034
H	0.8901729567080151 0.9438396998347302 0.5185800685454870	0.120592
H	0.7841315117322317 0.0509031806286213 0.5185284406662032	0.106553
H	0.7219373626605859 0.1093951275010651 0.5182341294718400	0.114841
H	0.5527991724457618 0.2741708153632318 0.5107467642837019	0.087836
H	0.6131260295852561 0.2144248379303220 0.5182121297656075	0.124586
H	0.4481525207928165 0.3813709856276779 0.5112837425520227	0.089035
H	0.3901729567080153 0.4438396668347306 0.5185800685454870	0.120607
H	0.2841314797322358 0.5509031766286208 0.5185284406662032	0.106637
H	0.2219373626605861 0.6093950865010651 0.5182341294718400	0.114844
H	0.0527991244457650 0.7741708313632334 0.5107467642837019	0.087836
H	0.1131260775852604 0.7144247889303219 0.5182121297656075	0.124586
H	0.0518474962071813 0.1186290393723207 0.0112837575520200	0.089036
H	0.1098270432919847 0.0561603331652693 0.0185800685454867	0.120606
H	0.2158685202677641 0.9490967903713801 0.0185284406662030	0.106638
H	0.2780626373394141 0.8906049134989349 0.0182341604718464	0.114843
H	0.4472008925542327 0.7258291686367666 0.0107467562837019	0.087836
H	0.3868739064147453 0.7855752110696781 0.0182121027656090	0.124587
H	0.5518475442071782 0.6186290143723220 0.0112837575520200	0.089035
H	0.6098270432919849 0.5561603001652698 0.0185800685454867	0.120591
H	0.7158684882677683 0.4490968233713791 0.0185284406662030	0.106554
H	0.7780626373394141 0.3906048804989357 0.0182341604718464	0.114841
H	0.9472008275542382 0.2258291846367682 0.0107467562837019	0.087836
H	0.8868739704147439 0.2855751450696802 0.0182121027656090	0.124587
Fe	0.5000000000000000 0.6726505383346426 0.7541671429394984	0.885298
Fe	0.0000000000000000 0.1726505053346434 0.7541671429394984	0.885298
Fe	0.5000000000000000 0.3273494946653568 0.2541671269394971	0.885298
Fe	0.0000000000000000 0.8273494616653574 0.2541671269394971	0.885298
V	0.5000000000000000 0.6727623757171339 0.2315367073604539	2.232630
V	0.0000000000000000 0.1727624247171342 0.2315367073604539	2.232629
V	0.5000000000000000 0.3272375592828718 0.7315367233604555	2.232629
V	0.0000000000000000 0.8272376242828661 0.7315367233604555	2.232629
F	0.5000000000000000 0.7371996341152648 0.2571038919683533	-0.563052
F	0.5000000000000000 0.6083298100762886 0.2577343167932455	-0.559811
F	0.0000000000000000 0.2371996011152652 0.2571038919683533	-0.563052
F	0.0000000000000000 0.1083298180762892 0.2577343167932455	-0.559811
F	0.5000000000000000 0.2628003828847333 0.7571039079683540	-0.563054
F	0.5000000000000000 0.3916701569237124 0.7577343327932470	-0.559809
F	0.0000000000000000 0.7628003658847352 0.7571039079683540	-0.563054
F	0.0000000000000000 0.8916701899237114 0.7577343327932470	-0.559809
F	0.5621190624510519 0.6726797159949931 0.2562573552158635	-0.563478
F	0.0621190544510512 0.1726796989949955 0.2562573552158635	-0.563478
F	0.4378809375489483 0.3273202840050067 0.7562573712158648	-0.563478
F	0.9378809375489481 0.8273202840050069 0.7562573712158648	-0.563478
F	0.4378809375489483 0.6726797159949931 0.2562573552158635	-0.563478
F	0.9378809375489481 0.1726796989949955 0.2562573552158635	-0.563478
F	0.5621190624510519 0.3273202840050067 0.7562573712158648	-0.563478
F	0.0621190544510512 0.8273202840050069 0.7562573712158648	-0.563478
F	0.5000000000000000 0.6728371232402857 0.4872151244704735	-0.606482
F	0.0000000000000000 0.1728371232402856 0.4872151244704735	-0.606482
F	0.5000000000000000 0.3271628767597144 0.9872151864704717	-0.606482
F	0.0000000000000000 0.8271628767597143 0.9872151864704717	-0.606482
O	0.5000000000000000 0.6726938732698255 0.0239166939558720	-0.802680
O	0.0000000000000000 0.1726938732698257 0.0239166939558720	-0.802680
O	0.5000000000000000 0.3273061267301743 0.5239166749558737	-0.802680
O	0.0000000000000000 0.8273061267301745 0.5239166749558737	-0.802680
N	0.5493246934033456 0.7226333021347340 0.7519197717510765	-0.246034
N	0.9513670910032265 0.1220464864375620 0.7523726788627735	-0.245307
N	0.0493247334033417 0.2226333181347355 0.7519197717510765	-0.246033
N	0.4513670590032238 0.6220464624375601 0.7523726788627735	-0.245299
N	0.4506752745966587 0.2773666818652646 0.2519197557510756	-0.246032
N	0.0486329369967688 0.8779535375624399 0.2523726628627653	-0.245300
N	0.9506753065966544 0.7773666978652660 0.2519197557510756	-0.246032
N	0.5486329089967735 0.3779535045624406 0.2523726628627653	-0.245309
N	0.4506752745966587 0.7226333021347340 0.7519197717510765	-0.246032
N	0.0486329369967688 0.1220464864375620 0.7523726788627735	-0.245296
N	0.9506753065966544 0.2226333181347355 0.7519197717510765	-0.246032
N	0.5486329089967735 0.6220464624375601 0.7523726788627735	-0.245303
N	0.5493246934033456 0.2773666818652646 0.2519197557510756	-0.246030
N	0.9513670910032265 0.8779535375624399 0.2523726628627653	-0.245305
N	0.0493247334033417 0.7773666978652660 0.2519197557510756	-0.246030
N	0.4513670590032238 0.3779535045624406 0.2523726628627653	-0.245297
	  	
