#======================================================================

# CRYSTAL DATA

#----------------------------------------------------------------------

data_VESTA_phase_1


_pd_phase_name                         VOFFIVE_14_Cd_i
_cell_length_a                         13.72227
_cell_length_b                         13.71219
_cell_length_c                         8.09888
_cell_angle_alpha                      89.89194
_cell_angle_beta                       89.90073
_cell_angle_gamma                      90.63118
_symmetry_space_group_name_H-M         P 1
_symmetry_Int_Tables_number            1

loop_
_symmetry_equiv_pos_as_xyz
   x, y, z

loop_
   _atom_site_label
   _atom_site_fract_x
   _atom_site_fract_y
   _atom_site_fract_z
   _atom_site_charge
C	0.5778966755494396 0.2651747304956573 0.3639742442297551	-0.187185
C	0.4768952510458895 0.2694719375158792 0.3675307588110017	0.110090
C	0.9345276248593694 0.2880667748917047 0.4183590854287838	-0.170387
C	0.0352050381929412 0.2806692591464325 0.4045674205230164	0.111778
C	0.2633483658053941 0.5778240732265782 0.3671867606908415	-0.186135
C	0.2677460537743090 0.4767095831228392 0.3707365494468380	0.110115
C	0.2964397288084543 0.9347445474136820 0.4133586275666347	-0.171948
C	0.2875011311120370 0.0353861083206250 0.4008493997367494	0.111020
C	0.9224837219808683 0.2372541695798775 0.1329899470336184	-0.184728
C	0.0236123868990616 0.2335637391359048 0.1291232993347340	0.109759
C	0.5648742415461866 0.2068926577022944 0.0828427842713242	-0.168399
C	0.4641583540716646 0.2151711087840960 0.0961069997783492	0.113091
C	0.2083918854204372 0.5650833162551994 0.0841656510160951	-0.172892
C	0.2171842137177322 0.4644012194770946 0.0972020969758192	0.112171
C	0.2341270670041699 0.9223752486473287 0.1347181160309502	-0.184786
C	0.2297785034866400 0.0235563249767191 0.1313718255699435	0.110160
C	0.4226528833918020 0.7358209403173304 0.6354456909077715	-0.181740
C	0.5237608853196679 0.7341008655232480 0.6300862388193940	0.109325
C	0.0648122096401530 0.7298150369936329 0.5719875006166999	-0.161285
C	0.9638680198998999 0.7312746984190777 0.5890905938390409	0.114277
C	0.7366044681234198 0.4225073858291080 0.6342678722110097	-0.182197
C	0.7339433797286410 0.5236963659391348 0.6294634950551476	0.109722
C	0.7173453279533285 0.0642983313468383 0.5764955221143653	-0.163814
C	0.7227850957552452 0.9633828939883307 0.5919550654220105	0.112564
C	0.0777754925653986 0.7617518297641513 0.8652273933451575	-0.183992
C	0.9767399221816393 0.7628685646192110 0.8708097912520324	0.108316
C	0.4351273889782735 0.7759000196109367 0.9258037727044957	-0.162103
C	0.5360010971076430 0.7737855761665231 0.9089479488539959	0.113480
C	0.7769417895692270 0.4347624800103478 0.9245637714213949	-0.164239
C	0.7727660997378470 0.5356480251137071 0.9087403789055765	0.112929
C	0.7657415917371911 0.0775619576991760 0.8630958627135891	-0.183967
C	0.7693211241662085 0.9765099727758386 0.8675897646297405	0.109792
C	0.6228646097622376 0.2342113095305070 0.2174308509693878	0.189602
C	0.8770053856951390 0.2640138268782748 0.2814366951325645	0.190277
C	0.2339584614092862 0.6229141584602759 0.2198884503937214	0.191496
C	0.2671249858408514 0.8770491552602009 0.2795423878199761	0.189892
C	0.3773995947378103 0.7564891179782484 0.7871432855603329	0.187987
C	0.1227387721226631 0.7454307683518339 0.7117296519357271	0.188528
C	0.7576904215426628 0.3771219018416572 0.7856782954552964	0.188533
C	0.7399806677269700 0.1224109066795120 0.7133442761572499	0.188766
H	0.6210568497520955 0.2815410323940368 0.4732611433662527	0.105398
H	0.4379849048862973 0.2914670673765386 0.4789560708361238	0.104221
H	0.9009671624925717 0.3112882125396214 0.5333869307983651	0.126579
H	0.0829157938570751 0.2971929654299326 0.5088286908957506	0.099473
H	0.2783887079929772 0.6211311312589527 0.4769048364450024	0.108610
H	0.2882671632841999 0.4376315742013099 0.4828622501130956	0.103903
H	0.3245674233826842 0.9012062256235058 0.5252087581522632	0.127344
H	0.3071855323291662 0.0832105122798645 0.5034822990394066	0.100247
H	0.8794464277000565 0.2237387456372463 0.0223811507936109	0.105587
H	0.0631475100472390 0.2149659561673426 0.0163921060868889	0.109264
H	0.5982208587324778 0.1803645508721012 0.9696840183313384	0.126189
H	0.4159130616247668 0.1966554184930761 0.9933285588730946	0.107690
H	0.1833171005866946 0.5986204352812761 0.9701713813886993	0.126225
H	0.2003934627600140 0.4162867516513553 0.9933825452812088	0.108338
H	0.2161820673945996 0.8791649631574153 0.0261615397662815	0.108968
H	0.2067482603001879 0.0629401601767329 0.0209182184132057	0.108327
H	0.3799711961078807 0.7239827920664935 0.5238630903750274	0.099292
H	0.5631557361095285 0.7185593908057937 0.5158858854959888	0.110203
H	0.0982029268927823 0.7168318280250499 0.4521715974961758	0.124503
H	0.9156467851590978 0.7185492948300249 0.4840456165927357	0.107102
H	0.7259569628230864 0.3797335534898310 0.5224015378899487	0.100778
H	0.7186682297043020 0.5632536126709236 0.5152502822123308	0.110709
H	0.6959589505212961 0.0976100753501571 0.4602078234805184	0.125636
H	0.7059982878963562 0.9150527012188697 0.4885349265443499	0.106978
H	0.1205247142179598 0.7706889719699863 0.9775602318140726	0.098859
H	0.9376677675263750 0.7751288791177416 0.9864176591360587	0.104820
H	0.4017338672818883 0.7924190416866135 0.0442812294704452	0.125066
H	0.5838297876562629 0.7895279943753063 0.0132636136066015	0.098325
H	0.7947027185107720 0.4012468962560922 0.0424411883604813	0.125874
H	0.7874742312397151 0.5834257499138661 0.0135683754425537	0.097985
H	0.7793239980270377 0.1204606011494226 0.9738661359541566	0.101168
H	0.7883293152039271 0.9375835597234554 0.9806400105989156	0.104819
N	0.7750186415791188 0.2737549618101359 0.2997242812677406	-0.101041
N	0.2783294112598740 0.7749547636736990 0.2956205532777307	-0.103440
N	0.7248794748278455 0.2239309303022509 0.1991144826473216	-0.102097
N	0.2228874489143610 0.7249565321031077 0.2035996807418173	-0.101412
N	0.2246785259639426 0.7410446911036873 0.6864371632475137	-0.099760
N	0.7321489358876645 0.2243872075403364 0.6904414887627209	-0.101488
N	0.2754292369867760 0.7613956081178922 0.8121038115194844	-0.102218
N	0.7647650711319028 0.2751446262496811 0.8086234262315118	-0.100024
N	0.4214140475069648 0.2460653165924349 0.2359891190547224	-0.229535
N	0.0785900385242082 0.2537139877588094 0.2628945142036735	-0.229630
N	0.2463248235548545 0.4213929481225828 0.2381072082498983	-0.231377
N	0.2546729137992995 0.0786475053398135 0.2626517853431859	-0.228635
N	0.5790526025137757 0.7526131540793848 0.7643859657559053	-0.226508
N	0.9211541981120804 0.7480097604772865 0.7357000081887908	-0.226309
N	0.7512542436732659 0.5788557342722364 0.7643312813765430	-0.227481
N	0.7486592470576088 0.9208156143073039 0.7348037933170648	-0.226343
F	0.3436161404343305 0.1528975404779539 0.7564191760586135	-0.586311
F	0.1571981119439504 0.3458829837630510 0.7542724690055650	-0.586651
F	0.3464955409006251 0.3421901865454461 0.7823997812620401	-0.589419
F	0.1540035131396477 0.1562697247583033 0.7320518088809213	-0.588678
F	0.6544541238576947 0.8449296415744557 0.2556334346518074	-0.582398
F	0.8447891891212445 0.6561908385259889 0.2545626326989427	-0.583563
F	0.6552221807237475 0.6556620445236493 0.2277434372428860	-0.585538
F	0.8433829278975906 0.8451888319248887 0.2868270344724108	-0.586998
F	0.2373780236579115 0.2378825836260684 0.9796368020994394	-0.631404
F	0.7360976287353457 0.7362977273173628 0.4790945881831971	-0.630682
O	0.2622031248874546 0.2602574011522304 0.5283816588052556	-0.836351
O	0.7622819241723934 0.7633258408442372 0.0286926328482468	-0.834209
V	0.2515897643744484 0.2504088673201286 0.7320396279043655	2.277170
V	0.7508239537678663 0.7518328202515028 0.2320095840025626	2.271747
Cd	0.2500834359701631 0.2501074003064626 0.2505843812611858	0.856360
Cd	0.7501742761528734 0.7498505662586495 0.7505944937058578	0.851869
	  	
