#======================================================================

# CRYSTAL DATA

#----------------------------------------------------------------------

data_VESTA_phase_1


_pd_phase_name                         VOFFIVE_1_Ni
_cell_length_a                         10.91812
_cell_length_b                         10.91812
_cell_length_c                         8.12394
_cell_angle_alpha                      90
_cell_angle_beta                       90
_cell_angle_gamma                      90
_symmetry_space_group_name_H-M         P 1
_symmetry_Int_Tables_number            1

loop_
_symmetry_equiv_pos_as_xyz
   x, y, z

loop_
   _atom_site_label
   _atom_site_fract_x
   _atom_site_fract_y
   _atom_site_fract_z
   _atom_site_charge
C	0.2613492233884663 0.4579052187759872 0.3680189294543813	0.095690
C	0.1340507477909715 0.4568874037204623 0.3639869749487440	-0.168805
C	0.7386508196115334 0.5420948242240128 0.3680189294543812	0.095687
C	0.8659491982090234 0.5431125962795378 0.3639869749487440	-0.168805
C	0.5420948242240128 0.2613492233884663 0.3680189294543812	0.095688
C	0.5431125962795378 0.1340507477909715 0.3639869749487440	-0.168806
C	0.4579052187759872 0.7386508196115334 0.3680189294543812	0.095690
C	0.4568874037204623 0.8659491982090234 0.3639869749487440	-0.168806
C	0.7392869080269008 0.4574495298381623 0.6314939599880434	0.097481
C	0.8664249581075856 0.4567501660761129 0.6354901639829168	-0.171239
C	0.2607131349730992 0.5425505131618379 0.6314939599880434	0.097480
C	0.1335749878924100 0.5432498339238870 0.6354901639829168	-0.171233
C	0.4574495298381623 0.2607131349730992 0.6314939599880434	0.097481
C	0.4567501660761129 0.1335749878924100 0.6354901639829168	-0.171239
C	0.5425505131618379 0.7392869080269008 0.6314939599880434	0.097480
C	0.5432498339238870 0.8664249581075856 0.6354901639829168	-0.171234
C	0.0675872457381346 0.4999866053429580 0.4995407022395281	0.100000
C	0.9324127752618706 0.5000133946570421 0.4995407022395281	0.100002
C	0.5000133946570421 0.0675872457381346 0.4995407022395281	0.100001
C	0.4999866053429580 0.9324127752618706 0.4995407022395281	0.100002
H	0.3160930451028994 0.4265243013478674 0.2639225824786700	0.117420
H	0.0873804166390778 0.4207496981511539 0.2558792294815069	0.126189
H	0.6839069338970956 0.5734756986521325 0.2639225824786700	0.117420
H	0.9126195673609210 0.5792503018488461 0.2558792294815069	0.126188
H	0.5734756986521325 0.3160930451028994 0.2639225824786700	0.117420
H	0.5792503018488461 0.0873804166390778 0.2558792294815069	0.126191
H	0.4265243013478674 0.6839069338970956 0.2639225824786700	0.117420
H	0.4207496981511539 0.9126195673609210 0.2558792294815069	0.126189
H	0.6853040231778647 0.4251428358585727 0.7356663227964972	0.110582
H	0.9130603479954627 0.4206869066406578 0.7436003470271024	0.126766
H	0.3146959558221300 0.5748571641414274 0.7356663227964972	0.110581
H	0.0869396360045360 0.5793130933593422 0.7436003470271024	0.126764
H	0.4251428358585727 0.3146959558221300 0.7356663227964972	0.110581
H	0.4206869066406578 0.0869396360045360 0.7436003470271024	0.126767
H	0.5748571641414274 0.6853040231778647 0.7356663227964972	0.110582
H	0.5793130933593422 0.9130603479954627 0.7436003470271024	0.126766
Ni	0.5000000000000000 0.5000000000000000 0.5013229651792935	0.485434
V	0.5000000000000000 0.5000000000000000 -0.0167715165265628	2.247318
O	0.5000000000000000 0.5000000000000000 0.7799750032036865	-0.822230
F	0.5000000000000000 0.5000000000000000 0.2262802764725171	-0.633240
F	0.3796862405672186 0.3787864216453446 0.0045564402170339	-0.599627
F	0.6203138024327813 0.6212136213546553 0.0045564402170339	-0.599627
F	0.6212136213546553 0.3796862405672186 0.0045564402170339	-0.599627
F	0.3787864216453446 0.6203138024327813 0.0045564402170339	-0.599627
N	0.3232206718631352 0.5002215014205171 0.5001426943033411	-0.153783
N	0.6767793711368649 0.4997784985794826 0.5001426943033411	-0.153774
N	0.4997784985794826 0.3232206718631352 0.5001426943033411	-0.153775
N	0.5002215014205171 0.6767793711368649 0.5001426943033411	-0.153782
	  	
