#======================================================================

# CRYSTAL DATA

#----------------------------------------------------------------------

data_VESTA_phase_1


_pd_phase_name                         VOFFIVE_14_Ni_i
_cell_length_a                         13.26454
_cell_length_b                         13.23456
_cell_length_c                         7.77498
_cell_angle_alpha                      87.50005
_cell_angle_beta                       87.50025
_cell_angle_gamma                      89.68873
_symmetry_space_group_name_H-M         P 1
_symmetry_Int_Tables_number            1

loop_
_symmetry_equiv_pos_as_xyz
   x, y, z

loop_
   _atom_site_label
   _atom_site_fract_x
   _atom_site_fract_y
   _atom_site_fract_z
   _atom_site_charge
C	0.5692066155394324 0.2705392186915413 0.3655332178014206	-0.184579
C	0.4645053332793802 0.2749058062236064 0.3719623634208218	0.112301
C	0.9365679723847542 0.2915100172166906 0.4185385429930141	-0.173638
C	0.0409689932004517 0.2841729466670891 0.4056997183909162	0.111795
C	0.2684219010683225 0.5686920046669565 0.3681076618678816	-0.186200
C	0.2728830546790404 0.4637617187798672 0.3748147231150021	0.113526
C	0.2993417489477404 0.9365825264673402 0.4128409258798814	-0.174535
C	0.2909776439801357 0.0411212814051169 0.4010287928009731	0.111040
C	0.9329656901232978 0.2323858383915719 0.1301278107128249	-0.184233
C	0.0377965653962965 0.2292807453924819 0.1270053406351199	0.111255
C	0.5610229834814159 0.2054938445545550 0.0816550089699686	-0.173220
C	0.4566786825955629 0.2144199640134376 0.0973968941983161	0.112173
C	0.2065587516481494 0.5604638311591249 0.0821069282105891	-0.176466
C	0.2156968488608319 0.4559951534160147 0.0980743447008847	0.109241
C	0.2288696946883509 0.9326013022730845 0.1326722377321266	-0.182019
C	0.2254664868996789 0.0376491656825369 0.1297212251358520	0.112046
C	0.4333294699815678 0.7334437846988220 0.6290720656744681	-0.178336
C	0.5381194294338674 0.7317357100184361 0.6253187631403224	0.110864
C	0.0604509118641218 0.7278983489516807 0.5693706018793789	-0.163305
C	0.9559341707710809 0.7305548202860483 0.5895589364509903	0.111758
C	0.7339229830486818 0.4337337341606375 0.6289750362366920	-0.177944
C	0.7323271542170944 0.5387797700374216 0.6253409968789195	0.112379
C	0.7147526862885563 0.0599416313127189 0.5755302965366207	-0.165104
C	0.7200304710092669 0.9552120353763778 0.5940386212423104	0.109553
C	0.0689960806436075 0.7636313192292673 0.8698326036192463	-0.182350
C	0.9643163855086329 0.7656147336652104 0.8782572991772036	0.113705
C	0.4367916240617604 0.7796025830202812 0.9252826171341108	-0.163822
C	0.5413228658673650 0.7771950563175746 0.9096738183944951	0.113280
C	0.7804063101788715 0.4369476875364984 0.9248680917410421	-0.166896
C	0.7773089180023356 0.5417214773928720 0.9099475611735227	0.112742
C	0.7687301672655129 0.0684084721881559 0.8667058939543442	-0.180398
C	0.7722630036741585 0.9635167885277155 0.8740142101444391	0.113091
C	0.6190445646087520 0.2354752857784130 0.2165051362081372	0.188485
C	0.8807138252426687 0.2632683983744452 0.2798686965314224	0.190209
C	0.2349945538028060 0.6185266498547284 0.2180276786336906	0.193174
C	0.2658595818860883 0.8805251678784696 0.2779904277140158	0.187660
C	0.3810472979168000 0.7569641121208989 0.7833647597971852	0.186798
C	0.1186002837422772 0.7449805477513769 0.7109974771536200	0.187812
C	0.7574430324945440 0.3811603731045091 0.7830418282606594	0.187685
C	0.7400619295822594 0.1182076316355626 0.7130546040952871	0.187053
H	0.6114152919312071 0.2891259080140801 0.4767123215588526	0.108226
H	0.4238247648018295 0.2994757750269582 0.4876705337916706	0.095060
H	0.8993235708192788 0.3184196833004924 0.5350595887813901	0.122681
H	0.0858717163184325 0.3048346718749939 0.5124758105940425	0.097826
H	0.2859079582076322 0.6112603894560044 0.4795613862659353	0.110946
H	0.2963130614306982 0.4230093153901442 0.4912014584448858	0.093680
H	0.3308962683154249 0.8992567347405694 0.5256128985263894	0.123977
H	0.3149564066911196 0.0862749800812223 0.5054399873789166	0.098452
H	0.8927804804337294 0.2157072873838657 0.0157480704983057	0.111559
H	0.0806175087619836 0.2082637381849443 0.0111440123231893	0.102450
H	0.5962960392828058 0.1758454255808451 0.9655386814904386	0.124532
H	0.4094280718022458 0.1933654796849207 0.9937593163623243	0.105047
H	0.1785990374122937 0.5958187864848221 0.9647068437843512	0.124886
H	0.1961908013217792 0.4086480523496113 0.9934662462744968	0.105949
H	0.2076181062951688 0.8921684001879064 0.0210395037791754	0.113613
H	0.2002238671916101 0.0804644330818856 0.0165503563585669	0.102973
H	0.3937321152277293 0.7194820652161246 0.5127209274661478	0.105209
H	0.5811376523490362 0.7139417619564731 0.5079129325198891	0.103016
H	0.0956130603120808 0.7129658677753888 0.4442549210240690	0.122989
H	0.9087432308323106 0.7169753203490661 0.4821909529561481	0.104473
H	0.7204994054308282 0.3939994572382277 0.5124397100505440	0.106063
H	0.7150028667381634 0.5819609037007230 0.5078369123157419	0.103458
H	0.6911535108406878 0.0952836084416068 0.4551620892355029	0.124385
H	0.7008741362335812 0.9079623367922435 0.4892797143436470	0.104130
H	0.1108911701765866 0.7735809061628662 0.9852856565747865	0.100791
H	0.9236240564870203 0.7801702392848748 -0.0006528811164011	0.092684
H	0.3993935681523455 0.7989027379310915 0.0464517514477865	0.121761
H	0.5858765017744265 0.7958260255066337 0.0178548306486449	0.095580
H	0.8003086682021506 0.3993399658515021 0.0455542490879700	0.122889
H	0.7956096104687513 0.5863169497870750 0.0183885869388608	0.095981
H	0.7844112974302079 0.1103802470984604 0.9798856289660117	0.103048
H	0.7941256182840654 0.9227596833461681 0.9913691734078621	0.095203
N	0.7747796715168477 0.2758811815367289 0.2954873950961306	-0.105407
N	0.2795971139795058 0.7743926394673248 0.2910888149990356	-0.106755
N	0.7249823715072179 0.2217601745256871 0.1994113646123317	-0.105920
N	0.2208995531265756 0.7246027386882868 0.2029498466238175	-0.106772
N	0.2246707219729041 0.7397937986089412 0.6822047756927901	-0.099278
N	0.7318791953086098 0.2245317384063738 0.6867839495589561	-0.100033
N	0.2749466239282888 0.7622383722590149 0.8095930738627890	-0.098553
N	0.7642976631365196 0.2748354201160826 0.8073892883125846	-0.100913
N	0.4087862236325094 0.2481837685869662 0.2402958515268123	-0.223873
N	0.0913408171671040 0.2532675983901980 0.2629688545425948	-0.223042
N	0.2479294151034821 0.4079798021475154 0.2421159520070748	-0.223901
N	0.2545109101638325 0.0913186407573063 0.2623541790695937	-0.222833
N	0.5916422637953965 0.7526527143602157 0.7632976634852494	-0.217682
N	0.9082640428679799 0.7494876825183628 0.7411519266804272	-0.219383
N	0.7528120926912238 0.5923180237798382 0.7636059473728514	-0.218556
N	0.7485674034877072 0.9074650861174941 0.7404825231248905	-0.216569
F	0.3460092431414841 0.1466371063021697 0.7578070776724080	-0.564408
F	0.1522184517883163 0.3476171802926708 0.7544866900549556	-0.564157
F	0.3493646076852183 0.3441508496958851 0.7378127688227634	-0.564635
F	0.1501037559393478 0.1517516179811194 0.7756914853284034	-0.562127
F	0.6476793035624888 0.8466358294523201 0.2573614294932471	-0.559366
F	0.8473261829976662 0.6517362979657850 0.2555723884946833	-0.559902
F	0.6518969555990497 0.6506718635040749 0.2734347626547289	-0.557897
F	0.8449795527116956 0.8490917065704032 0.2404838746808005	-0.560194
F	0.2501362662783437 0.2494792227716547 0.9940844344447707	-0.629085
F	0.7489598647424466 0.7495254698246253 0.4942731725458040	-0.626396
O	0.2490296255380758 0.2465536514010187 0.5170759379288704	-0.829662
O	0.7482091252886619 0.7497592454366928 0.0169489736223624	-0.828009
V	0.2497141470084085 0.2475073274692556 0.7300273825259748	2.243669
V	0.7481537357936499 0.7499396317440193 0.2301060206136907	2.236840
Ni	0.2502804400260160 0.2497588503154271 0.2526873054569362	0.794942
Ni	0.7500969716906954 0.7500560215255870 0.7534488906738186	0.789760
	  	
