#======================================================================

# CRYSTAL DATA

#----------------------------------------------------------------------

data_VESTA_phase_1


_pd_phase_name                         VOFFIVE_14_Zn_i
_cell_length_a                         13.39758
_cell_length_b                         13.37386
_cell_length_c                         7.82424
_cell_angle_alpha                      87.58347
_cell_angle_beta                       87.56162
_cell_angle_gamma                      89.80083
_symmetry_space_group_name_H-M         P 1
_symmetry_Int_Tables_number            1

loop_
_symmetry_equiv_pos_as_xyz
   x, y, z

loop_
   _atom_site_label
   _atom_site_fract_x
   _atom_site_fract_y
   _atom_site_fract_z
   _atom_site_charge
C	0.5713404331318421 0.2692173057693230 0.3655347730248470	-0.185994
C	0.4676598670120046 0.2737203852995734 0.3716722742988973	0.111272
C	0.9348214271550896 0.2897558041144445 0.4187129519165102	-0.174755
C	0.0382585113211944 0.2826169806931160 0.4054498131668847	0.111578
C	0.2673880035847270 0.5710000548797680 0.3679936620920018	-0.187143
C	0.2718075189943615 0.4671043941944207 0.3745331667518937	0.112699
C	0.2976231774014809 0.9351018009221596 0.4131567402639289	-0.175257
C	0.2893798281065444 0.0386470480061990 0.4009276160030227	0.108548
C	0.9304301736079841 0.2335604860309149 0.1299588223189560	-0.184237
C	0.0342533960731726 0.2305380089662158 0.1264340271338718	0.109912
C	0.5630639448057582 0.2066485521934431 0.0813781816722304	-0.172646
C	0.4596672747600802 0.2156812649687237 0.0968650943816782	0.108765
C	0.2078198225731595 0.5626871584741479 0.0818960045572015	-0.177215
C	0.2168483098599069 0.4591960360284452 0.0977318305665279	0.109008
C	0.2300667560994520 0.9302838340116933 0.1323592806219955	-0.183749
C	0.2267664442960451 0.0343094549004023 0.1289658630051480	0.111897
C	0.4307397721954681 0.7350086649219126 0.6296405579728087	-0.181071
C	0.5344734443443552 0.7332539853568816 0.6256047494208610	0.111948
C	0.0628953272032481 0.7284232602049218 0.5695231862861896	-0.165008
C	0.9593174546265406 0.7315527726036296 0.5891646476875076	0.112727
C	0.7353841096655788 0.4308719016578667 0.6293155036625343	-0.181373
C	0.7335676145557776 0.5347903833179727 0.6254800531930889	0.113052
C	0.7156117058977630 0.0623960487976352 0.5749995180625577	-0.164478
C	0.7214788954222296 0.9586908669016243 0.5927300180429228	0.110147
C	0.0710697781710271 0.7622525907238770 0.8694837060431908	-0.183121
C	0.9674723389250460 0.7642012362252758 0.8774243122090620	0.112535
C	0.4350069157758488 0.7785336844041753 0.9256805473533338	-0.165707
C	0.5385639083259590 0.7755224226242101 0.9100426990267269	0.113800
C	0.7793137838646061 0.4349240311683258 0.9251515599977026	-0.169594
C	0.7754562236146613 0.5386273571398338 0.9101922549832709	0.113180
C	0.7674956870454133 0.0706073916211885 0.8660953729955007	-0.181572
C	0.7710656523059080 0.9668398754559520 0.8728117198550773	0.112401
C	0.6203436317364145 0.2351415296259212 0.2166570375388522	0.188199
C	0.8793402770935248 0.2632213015615117 0.2799013593225719	0.189904
C	0.2347753974410684 0.6200266431416979 0.2182318874340394	0.192119
C	0.2659165123280062 0.8793902099963774 0.2779505985054261	0.189008
C	0.3796482712189441 0.7573802216011072 0.7839828000705453	0.186718
C	0.1200935806300144 0.7444682256979832 0.7112378564824520	0.187076
C	0.7580131447359907 0.3795761514177191 0.7833433083547787	0.189311
C	0.7396515280778397 0.1196966155843243 0.7129609590503604	0.185338
H	0.6132231653006865 0.2867657101685512 0.4764897315088948	0.107500
H	0.4268729619733088 0.2972317986036032 0.4869131748050735	0.097179
H	0.8981448764580816 0.3155114166478474 0.5353382784544851	0.123041
H	0.0834641645214205 0.3019300246105884 0.5119075531506828	0.098153
H	0.2838984230301592 0.6132713080012622 0.4791452649475005	0.110796
H	0.2941109203236961 0.4262889746331012 0.4905013808912861	0.095886
H	0.3280531687048572 0.8983946623779402 0.5261176281982027	0.123540
H	0.3119833519078878 0.0841091483327409 0.5051857245481141	0.100108
H	0.8901591954302590 0.2179840881967329 0.0161743324794652	0.110704
H	0.0767821565559513 0.2105164176896204 0.0106501727057719	0.103964
H	0.5980757731521168 0.1778172203037794 0.9656142906441377	0.124530
H	0.4126036537509422 0.1956115639439912 0.9931490435621761	0.106812
H	0.1805371891221393 0.5977098438118856 0.9649289669245235	0.125228
H	0.1981623317982978 0.4120653439657533 0.9931648740805467	0.107384
H	0.2099917037607038 0.8896870487260330 0.0212396253048980	0.113077
H	0.2026167861161229 0.0768199864721890 0.0158088897858782	0.104116
H	0.3910747453211464 0.7220413288356321 0.5140188138028836	0.105282
H	0.5772303913498330 0.7166820748304299 0.5084663278954646	0.104544
H	0.0979005871202782 0.7140359487234885 0.4451684060690745	0.123188
H	0.9123667456483874 0.7192732239255470 0.4817490759522553	0.104646
H	0.7230643441926513 0.3909509472923614 0.5136191272150692	0.106284
H	0.7173857731999879 0.5777003213486781 0.5082540704144369	0.105014
H	0.6925821785627452 0.0975407013334146 0.4553031629091900	0.123684
H	0.7036148497061366 0.9116283739444261 0.4878470534722519	0.104400
H	0.1125097024529468 0.7716280827672630 0.9844988878013456	0.100984
H	0.9265554548891644 0.7777298861426503 0.9975441679245750	0.095298
H	0.3981831257010961 0.7968981466242682 0.0466477475761061	0.121940
H	0.5835228263193842 0.7922161786075110 0.0179542893638248	0.096557
H	0.7984787105386622 0.3979530312311023 0.0455954579098888	0.123296
H	0.7918764270262658 0.5836457420770693 0.0182925719542011	0.096368
H	0.7823047084595114 0.1121886238939971 0.9788728857551352	0.103398
H	0.7915694396315435 0.9258525135417754 0.9895561012140365	0.097395
N	0.7744526546706376 0.2750206084241733 0.2962790602212773	-0.103841
N	0.2789912332352503 0.7743277692408784 0.2916637833806039	-0.106062
N	0.7252736475054833 0.2222370893939899 0.1991503592856965	-0.103818
N	0.2212966253426834 0.7250560893448226 0.2029972944702093	-0.104012
N	0.2251469708378354 0.7391163543170591 0.6835595705038731	-0.097754
N	0.7312395491829335 0.2249283890300899 0.6880931785866340	-0.098522
N	0.2745828582215318 0.7628550020434859 0.8097499103343029	-0.099517
N	0.7652125032344226 0.2743862149204964 0.8069072551448198	-0.101343
N	0.4126667486556759 0.2480877610373211 0.2398741154660838	-0.214044
N	0.0873927462907914 0.2534900824712297 0.2620376754286774	-0.214470
N	0.2476378997850947 0.4120801195013701 0.2418937804367104	-0.215991
N	0.2547891620302061 0.0876033804438176 0.2613259579566657	-0.213621
N	0.5876172180429456 0.7525637119112116 0.7632456482910929	-0.212382
N	0.9123308515454989 0.7493531813643437 0.7402606045372970	-0.212749
N	0.7525642047735023 0.5878762749615499 0.7634387955764178	-0.211971
N	0.7486888025277370 0.9117358151913736 0.7390006059800102	-0.211097
F	0.3447701921981211 0.1483815551592783 0.7581842620195621	-0.571096
F	0.1538520071338773 0.3475569296216384 0.7551247266300003	-0.571875
F	0.3488561139878497 0.3433938005837657 0.7400997620812144	-0.573116
F	0.1503415910696586 0.1533669904277451 0.7757857809590489	-0.571099
F	0.6493427406973062 0.8453835363936280 0.2585153982121707	-0.567245
F	0.8469258464952263 0.6528547185551798 0.2558546411038710	-0.568044
F	0.6532272380307823 0.6512261672437750 0.2735432640875243	-0.567308
F	0.8445131860414256 0.8481242943854176 0.2432773269834173	-0.569235
F	0.2496511078124695 0.2495568488820700 -0.0079834505715250	-0.617141
F	0.7488283579868685 0.7488846579715713 0.4922766447535179	-0.615288
O	0.2494759941558724 0.2474098037116768 0.5197526897834276	-0.819082
O	0.7491002674878163 0.7503986853988759 0.0198809927601186	-0.817697
V	0.2496369992702899 0.2480628533796391 0.7316702872271463	2.250531
V	0.7486567047416499 0.7497956531572781 0.2319969630886693	2.244059
Zn	0.2501251107899119 0.2499108111103995 0.2525393347843938	0.767625
Zn	0.7500435912082403 0.7498191016106692 0.7531403179487400	0.764683
	  	
