#======================================================================

# CRYSTAL DATA

#----------------------------------------------------------------------

data_VESTA_phase_1


_pd_phase_name                         VOFFIVE_13_Cu_i
_cell_length_a                         15.15892
_cell_length_b                         15.15701
_cell_length_c                         7.86463
_cell_angle_alpha                      89.98326
_cell_angle_beta                       89.97983
_cell_angle_gamma                      89.92337
_symmetry_space_group_name_H-M         P 1
_symmetry_Int_Tables_number            1

loop_
_symmetry_equiv_pos_as_xyz
   x, y, z

loop_
   _atom_site_label
   _atom_site_fract_x
   _atom_site_fract_y
   _atom_site_fract_z
   _atom_site_charge
C	0.5401521477649186 0.6810204101232887 0.8691132991229501	0.108759
C	0.5435453870424924 0.7728543509382667 0.8675825346540863	-0.147648
C	0.4635120258502055 0.3218009345388728 0.8760307094998453	0.106613
C	0.4600212996680867 0.2300443198312520 0.8761014003133452	-0.139867
C	0.8209092244040834 0.9737498608614626 0.3635529354035925	0.109943
C	0.7292932070102192 0.9705562010197889 0.3604352630537880	-0.134932
C	0.3212989864243411 0.5411537978919452 0.8671442145142733	0.104833
C	0.2295023280557296 0.5454868367360450 0.8654292013112145	-0.146583
C	0.1813460150320585 0.9711775457660230 0.3545087764737971	0.103124
C	0.2730586810414975 0.9697106020892295 0.3519324976320130	-0.136085
C	0.6802381445685420 0.4631050682040789 0.8816076897435294	0.109705
C	0.7719217484837864 0.4599592937676606 0.8811605942688315	-0.138578
C	0.4549271226994176 0.6813819649069547 0.1159339267869330	0.108267
C	0.4512723562014871 0.7729932688030242 0.1177165646784896	-0.136507
C	0.5396477749399972 0.3231185462758149 0.1338804708259645	0.105757
C	0.5424331621423538 0.2313491308911687 0.1386509030110132	-0.147859
C	0.1797249351995496 0.0197804609460502 0.6355682770449800	0.111353
C	0.2711602185977221 0.0222339960610688 0.6421409297853655	-0.137486
C	0.6788400742644435 0.5434156108274122 0.1345386183628732	0.108283
C	0.7706294751099855 0.5469400044835625 0.1381405267695353	-0.147686
C	0.8205568266232118 0.0297542361725089 0.6395697073318304	0.102685
C	0.7289877601145180 0.0307595233938815 0.6452045512365359	-0.136496
C	0.3201206104288061 0.4582648793413702 0.1170740363698075	0.109710
C	0.2284574786819637 0.4555213223271754 0.1188115633219549	-0.140600
C	0.9655949061560922 0.8184922032487416 0.6361845969186115	0.113444
C	0.9643733656835953 0.7268453051523995 0.6424554177944792	-0.137370
C	0.9836438866618965 0.1783523975523214 0.6403280671341203	0.102903
C	0.9796871905099593 0.2697609160931114 0.6436438639382194	-0.136217
C	0.0208807177490316 0.8177809187899473 0.3596927833319182	0.102229
C	0.0240815841589770 0.7262335794765279 0.3572817162300098	-0.135207
C	0.0311931628222337 0.1775679752517917 0.3584334820478972	0.111204
C	0.0312097985243457 0.2693161091279852 0.3525897598337908	-0.135221
C	0.0038382168628808 0.3161462890764478 0.4969522719388312	0.043666
C	0.0009080919812059 0.4126859700909896 0.4970110613958214	0.255299
C	0.4977271064218974 0.8196728511344142 0.9929138832056663	0.056039
C	0.4987503014433033 0.9169828220138736 0.9977393870374901	0.247443
C	0.9952587486104576 0.6798389782713637 0.5009921038892431	0.039741
C	0.9971701602626113 0.5831640536034814 0.5007214813512676	0.248185
C	0.5009718156891719 0.1839761647454331 0.0086910134066970	0.056938
C	0.5002552515219292 0.0865647325801693 0.0095290262172147	0.251045
C	0.6824605789233078 -0.0000716674733013 0.5033269120660980	0.040032
C	0.5858235544573660 0.9977650642054707 0.5043709195481905	0.246858
C	0.1822613433769304 0.5011339063002123 0.9920398075331760	0.056654
C	0.0849173214561479 0.5021706548585192 0.9944339059011692	0.248008
C	0.3187708925837739 0.9960160082559865 0.4981194861847597	0.043233
C	0.4153412309028835 0.9960882961030525 0.5013840219765694	0.254140
C	0.8179971310336377 0.5036311353162091 0.0102934281739185	0.055587
C	0.9153736157279931 0.5034868084613617 0.0076254827334574	0.248404
H	0.5704014235493561 0.6415557132858338 0.7684430320411944	0.114945
H	0.5805288959984608 0.8066122557616364 0.7681285493183971	0.124910
H	0.4367197832942495 0.3607311856181428 0.7708615687428821	0.116233
H	0.4282336378533226 0.1949090013428113 0.7720101903425647	0.119309
H	0.8602363106473153 0.9534652016648345 0.2540770287068858	0.113744
H	0.6954255593916888 0.9462589008423186 0.2477236002135748	0.121250
H	0.3609118858932870 0.5702493842853773 0.7653339285282693	0.116056
H	0.1961232555250202 0.5819659471075385 0.7646938735207751	0.125550
H	0.1433363322896099 0.9541606382249758 0.2413935745117550	0.108188
H	0.3073757811589646 0.9499675178222413 0.2363026644866548	0.117615
H	0.6411858557950674 0.4348154862961570 0.7784194715254322	0.115475
H	0.8070986631934214 0.4265904893343854 0.7789020291040012	0.117994
H	0.4242769265157705 0.6421698968454491 0.2163052198073519	0.111886
H	0.4161040694420158 0.8074847424158035 0.2185247198999226	0.117158
H	0.5673614045934406 0.3625885978867193 0.2371853053089078	0.110230
H	0.5752195563946787 0.1982383373275977 0.2442919625395469	0.125358
H	0.1402203786580627 0.0379695897060039 0.7458682766202626	0.106924
H	0.3039118015554954 0.0430060064388021 0.7586043228284804	0.120654
H	0.6393272418786083 0.5724637216445380 0.2364374006912894	0.110393
H	0.8036741148054698 0.5817636129866757 0.2412508366573584	0.125329
H	0.8587790108376566 0.0502772986651747 0.7500224699916492	0.100346
H	0.6954815245647658 0.0536691901548671 0.7595165924017440	0.122689
H	0.3589473394998107 0.4282759027216598 0.2188824812949279	0.110549
H	0.1935363688196172 0.4213920951369090 0.2204450921955048	0.118404
H	0.9444948222781441 0.8576214212355953 0.7452061122502048	0.108355
H	0.9411903950286302 0.6936414430598047 0.7569395143957662	0.121722
H	0.9678276064285606 0.1401664709803810 0.7535473757331524	0.098151
H	0.9591975625281134 0.3034484701416742 0.7593821181903057	0.121172
H	0.0397199796984085 0.8562379146770386 0.2482941788997064	0.106733
H	0.0478877760224107 0.6922723528538357 0.2442840990900262	0.119890
H	0.0495485675385634 0.1380871189343702 0.2478315824961282	0.115879
H	0.0504483075131004 0.3029571793419091 0.2359065593431706	0.119289
N	0.9442842430600158 0.5396306904318838 0.6108399674177968	-0.136649
N	0.4208602541850459 0.0461546800211125 0.0087881352366735	-0.148456
N	0.5429265850728553 0.0501571699869089 0.6164367108302792	-0.135627
N	0.9560054488977228 0.4241230557053564 0.0024890555129880	-0.147074
N	0.0514439155238657 0.5430338871402000 0.3880837976400882	-0.133284
N	0.5788711989216107 0.0445362341838874 0.0114372689872342	-0.148559
N	0.9570591389537312 0.5821888015265322 0.0051327997036591	-0.147317
N	0.5451238549994721 0.9424067340135361 0.3948128156560380	-0.133679
N	0.0537530777617213 0.4562572159615412 0.3872013107466054	-0.132048
N	0.5781342099596439 0.9574077166355660 0.0009345065696253	-0.145752
N	0.4582860240834863 0.9415246545708080 0.3935859899515219	-0.129240
N	0.0441730332005622 0.5814995438156200 0.9941648167716458	-0.145874
N	0.9457299040341642 0.4527498255864399 0.6078674671960707	-0.131273
N	0.4201814594666771 0.9588979793296538 0.0062100554719826	-0.144730
N	0.0432371113868753 0.4234528275541857 0.9989714328286332	-0.146462
N	0.4560875398414009 0.0493486899464318 0.6145118581718357	-0.134416
N	0.0073369961578836 0.1334012588331736 0.4999038210719534	-0.205983
N	0.4978502796961702 0.6367347098845535 0.9931338195464924	-0.212200
N	0.9936378818002236 0.8627310893053779 0.4976824730678346	-0.205270
N	0.5017133341418238 0.3668759020929790 0.0039441006950374	-0.215814
N	0.8652944053324234 0.0023639588002022 0.5013049110227952	-0.203557
N	0.3651398662477086 0.4994537667927243 0.9925648370458219	-0.214165
N	0.1359585924770878 0.9948013648849203 0.4945645044488856	-0.205113
N	0.6350783798454371 0.5032252330182473 0.0073546780585653	-0.215973
Cu	0.0005726581466298 0.9981148761903808 0.4983791311342073	0.746298
Cu	0.5001477400316873 0.5017647238709275 -0.0007270297306548	0.755713
V	0.0000462708149852 0.9964231471800616 0.9797414511060335	2.251263
V	0.4986399438515235 0.5036793174082631 0.4804410060099218	2.273233
F	0.9982548330048324 0.0007010843493944 0.2309307083902880	-0.649516
F	0.5058325992463880 0.4999608642706179 0.7316862897851845	-0.655331
F	0.0868698565157988 0.0829734586171920 0.9999213381067215	-0.577723
F	0.5837533303079631 0.5923355345055124 0.4984656403944415	-0.592268
F	0.9131502583581393 0.9107369453119463 0.0052401416212128	-0.575858
F	0.4147922525292148 0.4147422255362678 0.5079811278973517	-0.593471
F	0.9139823779774446 0.0840574536172661 0.9924900434027757	-0.573419
F	0.4111771193185535 0.5884084324007670 0.5157170241028927	-0.591392
F	0.0861881631023261 0.9101359722164842 0.0127763968695994	-0.573894
F	0.5883038538159785 0.4191500848895679 0.4906327925534021	-0.592534
O	0.0019640544097659 0.9934733673472905 0.7699369372597720	-0.850568
O	0.4934188254589980 0.5056786010907800 0.2708471654638325	-0.860146
	  	
