#======================================================================

# CRYSTAL DATA

#----------------------------------------------------------------------

data_VESTA_phase_1


_pd_phase_name                         VOFFIVE_3_Fe
_cell_length_a                         14.31038
_cell_length_b                         14.31038
_cell_length_c                         7.63333
_cell_angle_alpha                      90
_cell_angle_beta                       90
_cell_angle_gamma                      90
_symmetry_space_group_name_H-M         P 1
_symmetry_Int_Tables_number            1

loop_
_symmetry_equiv_pos_as_xyz
   x, y, z

loop_
   _atom_site_label
   _atom_site_fract_x
   _atom_site_fract_y
   _atom_site_fract_z
   _atom_site_charge
C	0.2715859640247766 0.4514937839005798 0.6449947627270709	0.060682
C	0.2284140189752256 0.0485062210994241 0.6449947627270709	0.060682
C	0.2287707925735311 0.4513602883486680 0.3538308492758241	0.061854
C	0.2712291904264709 0.0486397166513360 0.3538308492758241	0.061854
C	0.0486397166513360 0.2712291904264709 0.3538308492758241	0.061852
C	0.4513602883486680 0.2287707925735311 0.3538308492758240	0.061852
C	0.4514937839005798 0.2715859640247766 0.6449947627270709	0.060677
C	0.0485062210994241 0.2284140189752256 0.6449947627270709	0.060677
C	0.9514938179005756 0.2284140189752256 0.6449947627270709	0.060674
C	0.5485061820994244 0.2715859640247766 0.6449947627270709	0.060674
C	0.5486396776513367 0.2287707925735311 0.3538308492758241	0.061843
C	0.9513603223486633 0.2712291904264709 0.3538308492758241	0.061843
C	0.7287707755735264 0.0486397166513360 0.3538308492758241	0.061852
C	0.7712292244264736 0.4513602883486680 0.3538308492758241	0.061852
C	0.7715859980247792 0.0485062210994241 0.6449947627270709	0.060677
C	0.7284140019752208 0.4514937839005798 0.6449947627270709	0.060677
C	0.4514937839005798 0.7284140019752208 0.6449947627270709	0.060682
C	0.0485062210994241 0.7715859980247792 0.6449947627270709	0.060682
C	0.0486397166513360 0.7287707755735264 0.3538308492758241	0.061854
C	0.4513602883486680 0.7712292244264736 0.3538308492758241	0.061854
C	0.2287707925735311 0.5486396776513367 0.3538308492758241	0.061842
C	0.2712291904264709 0.9513603223486633 0.3538308492758241	0.061842
C	0.2715859640247766 0.5485061820994244 0.6449947627270709	0.060669
C	0.2284140189752256 0.9514938179005756 0.6449947627270709	0.060669
C	0.7715859980247792 0.9514938179005756 0.6449947627270709	0.060674
C	0.7284140019752208 0.5485061820994244 0.6449947627270709	0.060674
C	0.7287707755735264 0.9513603223486633 0.3538308492758241	0.061844
C	0.7712292244264736 0.5486396776513367 0.3538308492758241	0.061843
C	0.5486396776513367 0.7712292244264736 0.3538308492758241	0.061842
C	0.9513603223486633 0.7287707755735264 0.3538308492758241	0.061842
C	0.9514938179005756 0.7715859980247792 0.6449947627270709	0.060669
C	0.5485061820994244 0.7284140019752208 0.6449947627270709	0.060669
H	0.2884295318158243 0.4129483050214974 0.7639105360039040	0.100179
H	0.2115704851841808 0.0870517039784998 0.7639105360039040	0.100179
H	0.2116691796735356 0.4125019218480058 0.2352203538953878	0.108400
H	0.2883308373264692 0.0874980871519913 0.2352203538953878	0.108400
H	0.0874980871519913 0.2883308373264692 0.2352203538953878	0.108400
H	0.4125019218480058 0.2116691796735356 0.2352203538953878	0.108400
H	0.4129483050214974 0.2884295318158243 0.7639105360039040	0.100179
H	0.0870517039784998 0.2115704851841808 0.7639105360039040	0.100179
H	0.9129482710215016 0.2115704851841808 0.7639105360039040	0.100181
H	0.5870517289784984 0.2884295318158243 0.7639105360039040	0.100181
H	0.5874981121519895 0.2116691796735356 0.2352203538953878	0.108402
H	0.9125018878480105 0.2883308373264692 0.2352203538953878	0.108402
H	0.7116691286735354 0.0874980871519913 0.2352203538953878	0.108400
H	0.7883308713264646 0.4125019218480058 0.2352203538953878	0.108400
H	0.7884295658158200 0.0870517039784998 0.7639105360039040	0.100179
H	0.7115704341841800 0.4129483050214974 0.7639105360039040	0.100179
H	0.4129483050214974 0.7115704341841800 0.7639105360039040	0.100179
H	0.0870517039784998 0.7884295658158200 0.7639105360039040	0.100179
H	0.0874980871519913 0.7116691286735354 0.2352203538953878	0.108400
H	0.4125019218480058 0.7883308713264646 0.2352203538953878	0.108400
H	0.2116691796735356 0.5874981121519895 0.2352203538953878	0.108402
H	0.2883308373264692 0.9125018878480105 0.2352203538953878	0.108402
H	0.2884295318158243 0.5870517289784984 0.7639105360039040	0.100181
H	0.2115704851841808 0.9129482710215016 0.7639105360039040	0.100181
H	0.7884295658158200 0.9129482710215016 0.7639105360039040	0.100181
H	0.7115704341841800 0.5870517289784984 0.7639105360039040	0.100181
H	0.7116691286735354 0.9125018878480105 0.2352203538953878	0.108402
H	0.7883308713264646 0.5874981121519895 0.2352203538953878	0.108402
H	0.5874981121519895 0.7883308713264646 0.2352203538953878	0.108402
H	0.9125018878480105 0.7116691286735354 0.2352203538953878	0.108402
H	0.9129482710215016 0.7884295658158200 0.7639105360039040	0.100181
H	0.5870517289784984 0.7115704341841800 0.7639105360039040	0.100181
Fe	0.2500000000000000 0.2500000000000000 0.5059394819133652	0.856161
Fe	0.7500000340000028 0.2500000000000000 0.5059394819133652	0.856160
Fe	0.2500000000000000 0.7500000340000028 0.5059394819133652	0.856160
Fe	0.7500000340000028 0.7500000340000028 0.5059394819133652	0.856160
V	0.2500000000000000 0.2500000000000000 -0.0205711013053887	2.214771
V	0.7500000340000028 0.2500000000000000 -0.0205711013053887	2.214776
V	0.2500000000000000 0.7500000340000028 -0.0205711013053887	2.214776
V	0.7500000340000028 0.7500000340000028 -0.0205711013053887	2.214782
O	0.2500000000000000 0.2500000000000000 0.7537200937370593	-0.837904
O	0.7500000340000028 0.2500000000000000 0.7537200937370593	-0.837904
O	0.2500000000000000 0.7500000340000028 0.7537200937370593	-0.837904
O	0.7500000340000028 0.7500000340000028 0.7537200937370593	-0.837904
F	0.2500000000000000 0.2500000000000000 0.2525564792212996	-0.599019
F	0.3404876485523046 0.3404876485523046 0.0058205010838470	-0.536827
F	0.1595123514476953 0.1595123514476953 0.0058205010838470	-0.536827
F	0.1582978518931689 0.3417021481068310 0.0034028926027059	-0.543535
F	0.3417021481068310 0.1582978518931689 0.0034028926027059	-0.543535
F	0.7500000340000028 0.2500000000000000 0.2525564792212996	-0.599019
F	0.8417021141068353 0.3417021481068310 0.0034028926027059	-0.543532
F	0.6582978858931647 0.1582978518931689 0.0034028926027059	-0.543532
F	0.6595123854476912 0.3404876485523046 0.0058205010838470	-0.536824
F	0.8404876145523088 0.1595123514476953 0.0058205010838470	-0.536824
F	0.2500000000000000 0.7500000340000028 0.2525564792212996	-0.599019
F	0.3417021481068310 0.8417021141068353 0.0034028926027059	-0.543532
F	0.1582978518931689 0.6582978858931647 0.0034028926027059	-0.543532
F	0.1595123514476953 0.8404876145523088 0.0058205010838470	-0.536824
F	0.3404876485523046 0.6595123854476912 0.0058205010838470	-0.536824
F	0.7500000340000028 0.7500000340000028 0.2525564792212996	-0.599019
F	0.8404876145523088 0.8404876145523088 0.0058205010838470	-0.536822
F	0.6595123854476912 0.6595123854476912 0.0058205010838470	-0.536822
F	0.6582978858931647 0.8417021141068353 0.0034028926027059	-0.543530
F	0.8417021141068353 0.6582978858931647 0.0034028926027059	-0.543530
N	0.4026310924913685 0.2501023634811020 0.4995205668629584	-0.199430
N	0.0973688995086307 0.2498976365188980 0.4995205668629584	-0.199430
N	0.2501023634811020 0.4026310924913685 0.4995205668629584	-0.199432
N	0.2498976365188980 0.0973688995086307 0.4995205668629584	-0.199432
N	0.9026311264913716 0.2498976365188980 0.4995205668629584	-0.199429
N	0.5973688735086284 0.2501023634811020 0.4995205668629584	-0.199428
N	0.7498976705189010 0.4026310924913685 0.4995205668629584	-0.199431
N	0.7501023974811046 0.0973688995086307 0.4995205668629584	-0.199431
N	0.4026310924913685 0.7498976705189010 0.4995205668629584	-0.199431
N	0.0973688995086307 0.7501023974811046 0.4995205668629584	-0.199431
N	0.2498976365188980 0.9026311264913716 0.4995205668629584	-0.199429
N	0.2501023634811020 0.5973688735086284 0.4995205668629584	-0.199429
N	0.9026311264913716 0.7501023974811046 0.4995205668629584	-0.199428
N	0.5973688735086284 0.7498976705189010 0.4995205668629584	-0.199428
N	0.7501023974811046 0.9026311264913716 0.4995205668629584	-0.199430
N	0.7498976705189010 0.5973688735086284 0.4995205668629584	-0.199429
	  	
