#======================================================================

# CRYSTAL DATA

#----------------------------------------------------------------------

data_VESTA_phase_1


_pd_phase_name                         VOFFIVE_7_Cd
_cell_length_a                         19.81199
_cell_length_b                         19.81199
_cell_length_c                         8.15444
_cell_angle_alpha                      90
_cell_angle_beta                       90
_cell_angle_gamma                      90
_symmetry_space_group_name_H-M         P 1
_symmetry_Int_Tables_number            1

loop_
_symmetry_equiv_pos_as_xyz
   x, y, z

loop_
   _atom_site_label
   _atom_site_fract_x
   _atom_site_fract_y
   _atom_site_fract_z
   _atom_site_charge
C	0.6594975028427069 0.8760006443294150 0.6952661752279978	0.102295
C	0.6104107506764311 0.9260881695619364 0.6986697835084266	-0.180403
C	0.5769276979618475 0.8916499639353331 0.4280504524996356	-0.172306
C	0.6272329560785426 0.8429024841638738 0.4335199525276245	0.098086
C	0.8405024971572931 0.6239993556705850 0.6952661752279979	0.102295
C	0.8895892493235689 0.5739118304380636 0.6986697835084266	-0.180403
C	0.9230722520381555 0.6083500870646675 0.4280504524996356	-0.172306
C	0.8727669939214604 0.6570975158361262 0.4335199525276245	0.098086
C	0.6239993556705850 0.6594975028427069 0.6952661752279979	0.102295
C	0.5739118304380636 0.6104107506764311 0.6986697835084266	-0.180403
C	0.6083500870646675 0.5769276979618475 0.4280504524996356	-0.172306
C	0.6570975158361262 0.6272329560785426 0.4335199525276245	0.098086
C	0.8760006443294150 0.8405024971572931 0.6952661752279979	0.102295
C	0.9260881695619364 0.8895892493235689 0.6986697835084266	-0.180403
C	0.8916499639353331 0.9230722520381555 0.4280504524996356	-0.172305
C	0.8429024841638738 0.8727669939214604 0.4335199525276245	0.098086
C	0.3404212182595988 0.3758151526042784 0.3045753190180283	0.101315
C	0.3894129936101968 0.4260452815050428 0.3012700278877864	-0.178228
C	0.4230938615597565 0.3918248610726981 0.5718979933360290	-0.173111
C	0.3729294614700726 0.3429923633809895 0.5663349465311882	0.097403
C	0.1595787687404035 0.1241848473957216 0.3045753190180283	0.101315
C	0.1105870063898032 0.0739547184949572 0.3012700278877864	-0.178227
C	0.0769061384402434 0.1081751389273020 0.5718979933360290	-0.173111
C	0.1270705255299299 0.1570076366190106 0.5663349465311882	0.097403
C	0.3758151526042784 0.1595787687404035 0.3045753190180283	0.101315
C	0.4260452815050428 0.1105870063898032 0.3012700278877864	-0.178227
C	0.3918248610726981 0.0769061384402434 0.5718979933360290	-0.173111
C	0.3429923633809895 0.1270705255299299 0.5663349465311882	0.097403
C	0.1241848473957216 0.3404212182595988 0.3045753190180283	0.101315
C	0.0739547184949572 0.3894129936101968 0.3012700278877864	-0.178227
C	0.1081751389273020 0.4230938615597565 0.5718979933360290	-0.173111
C	0.1570076366190106 0.3729294614700726 0.5663349465311882	0.097403
C	0.4353702933455964 0.0679374201105779 0.4372157565542223	0.140947
C	0.4877604521452455 0.0163034032820810 0.4331657101257528	-0.122498
C	0.0646296876543984 0.4320625488894230 0.4372157565542223	0.140947
C	0.0122395218547523 0.4836965827179179 0.4331657101257528	-0.122498
C	0.4320625488894230 0.4353702933455964 0.4372157565542223	0.140947
C	0.4836965827179179 0.4877604521452455 0.4331657101257528	-0.122498
C	0.0679374201105779 0.0646296876543984 0.4372157565542223	0.140947
C	0.0163034032820810 0.0122395218547523 0.4331657101257528	-0.122498
C	0.5647439699619211 0.5678083066591231 0.5625430622949893	0.140988
C	0.5122860882929926 0.5162318245132868 0.5664633321506898	-0.122638
C	0.9352560800380830 0.9321917433408811 0.5625430622949893	0.140987
C	0.9877138607070067 0.9837681754867132 0.5664633321506898	-0.122638
C	0.5678083066591231 0.9352560800380830 0.5625430622949893	0.140987
C	0.5162318245132868 0.9877138607070067 0.5664633321506898	-0.122638
C	0.9321917433408811 0.5647439699619211 0.5625430622949893	0.140988
C	0.9837681754867132 0.5122860882929926 0.5664633321506898	-0.122638
H	0.6924381751611288 0.8669295102145347 0.8001974393178303	0.103857
H	0.6055061228394494 0.9580595370022844 0.8069633386379913	0.116402
H	0.5443876644017513 0.8944501531826932 0.3204269508106160	0.116352
H	0.6365693022517620 0.8091982587281334 0.3300623855820665	0.110487
H	0.8075618248388712 0.6330704387854647 0.8001974393178303	0.103857
H	0.8944938771605506 0.5419404129977186 0.8069633386379913	0.116402
H	0.9556122845982480 0.6055497958173062 0.3204269508106160	0.116352
H	0.8634306977482380 0.6908017412718666 0.3300623855820665	0.110487
H	0.6330704387854647 0.6924381751611288 0.8001974393178303	0.103857
H	0.5419404129977186 0.6055061228394494 0.8069633386379913	0.116402
H	0.6055497958173062 0.5443876644017513 0.3204269508106160	0.116352
H	0.6908017412718666 0.6365693022517620 0.3300623855820665	0.110487
H	0.8669295102145347 0.8075618248388712 0.8001974393178303	0.103857
H	0.9580595370022844 0.8944938771605506 0.8069633386379913	0.116402
H	0.8944501531826932 0.9556122845982480 0.3204269508106160	0.116352
H	0.8091982587281334 0.8634306977482380 0.3300623855820665	0.110487
H	0.3076573451151942 0.3662427801855749 0.1994878459496943	0.110135
H	0.3943106538326119 0.4579530910925558 0.1928500303475728	0.115636
H	0.4556911797833991 0.3946241770049392 0.6794175982536487	0.116570
H	0.3640929592885263 0.3090998682770724 0.6696219676902054	0.104252
H	0.1923426678848104 0.1337572328144297 0.1994878459496943	0.110135
H	0.1056893201673859 0.0420469279074420 0.1928500303475728	0.115636
H	0.0443088512165997 0.1053758099950561 0.6794175982536487	0.116570
H	0.1359070407114735 0.1909001187229301 0.6696219676902054	0.104252
H	0.3662427801855748 0.1923426678848104 0.1994878459496943	0.110135
H	0.4579530910925558 0.1056893201673859 0.1928500303475728	0.115636
H	0.3946241770049392 0.0443088512165997 0.6794175982536487	0.116570
H	0.3090998682770724 0.1359070407114735 0.6696219676902054	0.104252
H	0.1337572328144297 0.3076573451151942 0.1994878459496943	0.110135
H	0.0420469279074420 0.3943106538326119 0.1928500303475728	0.115636
H	0.1053758099950561 0.4556911797833991 0.6794175982536487	0.116570
H	0.1909001187229301 0.3640929592885263 0.6696219676902054	0.104252
H	0.5058321174049439 0.0021881749739048 0.3112076330453190	0.102809
H	0.9941678325950590 0.4978118230260949 0.3112076330453190	0.102809
H	0.4978118230260949 0.5058321174049439 0.3112076330453190	0.102809
H	0.0021881749739048 0.9941678325950590 0.3112076330453190	0.102809
H	0.4942036353955593 0.5021405716867706 0.6884474759536239	0.102635
H	0.0057963456044426 0.9978594783132264 0.6884474759536239	0.102635
H	0.5021405716867706 0.0057963456044426 0.6884474759536239	0.102635
H	0.9978594783132264 0.4942036353955593 0.6884474759536239	0.102635
Cd	0.2500000000000000 0.2500000000000000 0.4334691714611814	0.853781
Cd	0.7500000000000000 0.7500000000000000 0.5654592690141113	0.854547
V	0.2500000000000000 0.2500000000000000 0.9155778688980202	2.285203
V	0.7500000000000000 0.7500000000000000 0.0463022880760649	2.281274
F	0.2500000000000000 0.2500000000000000 0.1628380582437845	-0.631714
F	0.7500000000000000 0.7500000000000000 0.2939119236616041	-0.632011
F	0.3170841032751913 0.3146860778047738 0.9393419303398471	-0.596746
F	0.1829158967248087 0.1853139091952287 0.9393419303398471	-0.596746
F	0.1853139091952287 0.3170841032751913 0.9393419303398471	-0.596746
F	0.3146860778047738 0.1829158967248087 0.9393419303398471	-0.596746
F	0.6837511393614744 0.8155399620598961 0.0698659525752435	-0.596171
F	0.8162488606385256 0.6844600379401039 0.0698659525752435	-0.596171
F	0.8155399620598961 0.8162488606385256 0.0698659525752435	-0.596171
F	0.6844600379401039 0.6837511393614744 0.0698659525752435	-0.596171
O	0.2500000000000000 0.2500000000000000 0.7120325969632426	-0.832430
O	0.7500000000000000 0.7500000000000000 0.8428809225218257	-0.830297
N	0.3351813433194977 0.1676421649043746 0.4351814395860217	-0.237078
N	0.1648186566805024 0.3323578350956255 0.4351814395860217	-0.237078
N	0.3323578350956255 0.3351813433194977 0.4351814395860217	-0.237078
N	0.1676421649043746 0.1648186566805024 0.4351814395860217	-0.237078
N	0.6646862194542467 0.6677537461840476 0.5648374022879887	-0.238079
N	0.8353137805457533 0.8322462538159524 0.5648374022879887	-0.238079
N	0.6677537461840476 0.8353137805457533 0.5648374022879887	-0.238079
N	0.8322462538159524 0.6646862194542467 0.5648374022879887	-0.238079
	  	
