#======================================================================

# CRYSTAL DATA

#----------------------------------------------------------------------

data_VESTA_phase_1


_pd_phase_name                         VOFFIVE_7_Co
_cell_length_a                         18.73168
_cell_length_b                         18.73168
_cell_length_c                         8.01443
_cell_angle_alpha                      90
_cell_angle_beta                       90
_cell_angle_gamma                      90
_symmetry_space_group_name_H-M         P 1
_symmetry_Int_Tables_number            1

loop_
_symmetry_equiv_pos_as_xyz
   x, y, z

loop_
   _atom_site_label
   _atom_site_fract_x
   _atom_site_fract_y
   _atom_site_fract_z
   _atom_site_charge
C	0.6684625719551606 0.8688092477071439 0.6991957163736217	0.095833
C	0.6162736025745766 0.9213057057733787 0.7030972600427056	-0.176392
C	0.5813921070283399 0.8856542242207455 0.4278084479962598	-0.168027
C	0.6340608003749466 0.8337236011221456 0.4329201662748774	0.089764
C	0.8315374280448394 0.6311907522928561 0.6991957163736217	0.095833
C	0.8837263974254234 0.5786942942266213 0.7030972600427056	-0.176392
C	0.9186078429716631 0.6143458267792552 0.4278084479962598	-0.168027
C	0.8659391496250564 0.6662763988778544 0.4329201662748774	0.089764
C	0.6311907522928561 0.6684625719551606 0.6991957163736217	0.095833
C	0.5786942942266213 0.6162736025745766 0.7030972600427056	-0.176392
C	0.6143458267792552 0.5813921070283399 0.4278084479962598	-0.168027
C	0.6662763988778544 0.6340608003749466 0.4329201662748774	0.089764
C	0.8688092477071439 0.8315374280448394 0.6991957163736217	0.095833
C	0.9213057057733787 0.8837263974254234 0.7030972600427056	-0.176392
C	0.8856542242207455 0.9186078429716631 0.4278084479962598	-0.168026
C	0.8337236011221456 0.8659391496250564 0.4329201662748774	0.089764
C	0.3312028191594233 0.3683208818611944 0.3014869609953172	0.093661
C	0.3833461735296578 0.4210236109096283 0.2969224447224218	-0.172992
C	0.4188729804892757 0.3860105838213130 0.5721909173969113	-0.171772
C	0.3663838337450657 0.3340429588930894 0.5677769121145319	0.089897
C	0.1687971678405792 0.1316791181388055 0.3014869609953172	0.093661
C	0.1166538264703422 0.0789763890903716 0.2969224447224218	-0.172992
C	0.0811270195107243 0.1139894161786870 0.5721909173969113	-0.171772
C	0.1336161532549368 0.1659570411069104 0.5677769121145319	0.089897
C	0.3683208818611944 0.1687971678405792 0.3014869609953172	0.093662
C	0.4210236109096283 0.1166538264703422 0.2969224447224218	-0.172992
C	0.3860105838213130 0.0811270195107243 0.5721909173969113	-0.171772
C	0.3340429588930894 0.1336161532549368 0.5677769121145319	0.089897
C	0.1316791181388055 0.3312028191594233 0.3014869609953172	0.093662
C	0.0789763890903716 0.3833461735296578 0.2969224447224218	-0.172992
C	0.1139894161786870 0.4188729804892757 0.5721909173969113	-0.171772
C	0.1659570411069104 0.3663838337450657 0.5677769121145319	0.089897
C	0.4316754193877295 0.0714884392954670 0.4346950992625184	0.138136
C	0.4871044244261226 0.0169790239824630 0.4312920952472477	-0.123807
C	0.0683245616122654 0.4285115297045341 0.4346950992625184	0.138136
C	0.0128955495738753 0.4830209620175359 0.4312920952472477	-0.123807
C	0.4285115297045341 0.4316754193877295 0.4346950992625184	0.138136
C	0.4830209620175359 0.4871044244261226 0.4312920952472477	-0.123807
C	0.0714884392954670 0.0683245616122654 0.4346950992625184	0.138136
C	0.0169790239824630 0.0128955495738753 0.4312920952472477	-0.123807
C	0.5684850440562840 0.5713243974939638 0.5648065734692904	0.136567
C	0.5129902436134256 0.5168918645218860 0.5679085376234972	-0.121460
C	0.9315150059437202 0.9286756525060403 0.5648065734692904	0.136567
C	0.9870097053865737 0.9831081354781140 0.5679085376234972	-0.121461
C	0.5713243974939638 0.9315150059437202 0.5648065734692904	0.136567
C	0.5168918645218860 0.9870097053865737 0.5679085376234972	-0.121460
C	0.9286756525060403 0.5684850440562840 0.5648065734692904	0.136567
C	0.9831081354781140 0.5129902436134256 0.5679085376234972	-0.121460
H	0.7032615259908058 0.8595805799033156 0.8055177196133985	0.106533
H	0.6112988851968608 0.9544926930531280 0.8142755934181036	0.119551
H	0.5475980978305016 0.8891577888220000 0.3173838933956361	0.118989
H	0.6438121454628715 0.7985586260421511 0.3274344315337965	0.114599
H	0.7967384740091942 0.6404193690966837 0.8055177196133985	0.106533
H	0.8887011148031392 0.5455072569468750 0.8142755934181036	0.119551
H	0.9524018511694977 0.6108421601779993 0.3173838933956361	0.118989
H	0.8561878545371285 0.7014413739578489 0.3274344315337965	0.114599
H	0.6404193690966837 0.7032615259908058 0.8055177196133985	0.106533
H	0.5455072569468750 0.6112988851968608 0.8142755934181036	0.119551
H	0.6108421601779993 0.5475980978305016 0.3173838933956361	0.118989
H	0.7014413739578489 0.6438121454628715 0.3274344315337965	0.114599
H	0.8595805799033156 0.7967384740091942 0.8055177196133985	0.106533
H	0.9544926930531280 0.8887011148031392 0.8142755934181036	0.119551
H	0.8891577888220000 0.9524018511694977 0.3173838933956361	0.118989
H	0.7985586260421511 0.8561878545371285 0.3274344315337965	0.114599
H	0.2964454173940704 0.3581282077057039 0.1954412182115012	0.114407
H	0.3883511183087318 0.4540637420762782 0.1854545728162526	0.119049
H	0.4527978604634696 0.3894933012211281 0.6823383212426362	0.119614
H	0.3576077962504414 0.2988485690334274 0.6735720373911996	0.107920
H	0.2035545956059343 0.1418718052943008 0.1954412182115012	0.114407
H	0.1116488556912661 0.0459362769237198 0.1854545728162526	0.119049
H	0.0472021705365292 0.1105066857788672 0.6823383212426362	0.119614
H	0.1423922037495588 0.2011514179665750 0.6735720373911996	0.107920
H	0.3581282077057039 0.2035545956059343 0.1954412182115012	0.114407
H	0.4540637420762782 0.1116488556912661 0.1854545728162526	0.119049
H	0.3894933012211281 0.0472021705365292 0.6823383212426362	0.119614
H	0.2988485690334274 0.1423922037495588 0.6735720373911996	0.107920
H	0.1418718052943008 0.2964454173940704 0.1954412182115012	0.114407
H	0.0459362769237198 0.3883511183087318 0.1854545728162526	0.119049
H	0.1105066857788672 0.4527978604634696 0.6823383212426362	0.119614
H	0.2011514179665750 0.3576077962504414 0.6735720373911996	0.107920
H	0.5067031187037936 0.0015979027374167 0.3077629413145008	0.104084
H	0.9932968312962094 0.4984020952625832 0.3077629413145008	0.104084
H	0.4984020952625832 0.5067031187037936 0.3077629413145008	0.104084
H	0.0015979027374167 0.9932968312962094 0.3077629413145008	0.104084
H	0.4933907264086484 0.5016032383472299 0.6915352626751036	0.102990
H	0.0066092545913535 0.9983968116527672 0.6915352626751036	0.102990
H	0.5016032383472299 0.0066092545913535 0.6915352626751036	0.102990
H	0.9983968116527672 0.4933907264086484 0.6915352626751036	0.102990
Co	0.2500000000000000 0.2500000000000000 0.4366050373151770	0.617155
Co	0.7500000000000000 0.7500000000000000 0.5684686503183686	0.615340
V	0.2500000000000000 0.2500000000000000 0.9140057552692057	2.234765
V	0.7500000000000000 0.7500000000000000 0.0441273704450800	2.232148
F	0.2500000000000000 0.2500000000000000 0.1674767494128775	-0.625647
F	0.7500000000000000 0.7500000000000000 0.2976825069824712	-0.624963
F	0.3209776321120517 0.3188859573008848 0.9373752740690668	-0.588531
F	0.1790223678879482 0.1811140296991176 0.9373752740690668	-0.588531
F	0.1811140296991176 0.3209776321120517 0.9373752740690668	-0.588531
F	0.3188859573008848 0.1790223678879482 0.9373752740690668	-0.588531
F	0.6797836783959057 0.8197081715942710 0.0672463520585165	-0.588213
F	0.8202163216040943 0.6802918284057290 0.0672463520585165	-0.588213
F	0.8197081715942710 0.8202163216040943 0.0672463520585165	-0.588213
F	0.6802918284057290 0.6797836783959057 0.0672463520585165	-0.588213
O	0.2500000000000000 0.2500000000000000 0.7065738727113348	-0.821351
O	0.7500000000000000 0.7500000000000000 0.8367863567837120	-0.820848
N	0.3252234843835914 0.1772032263738926 0.4350163140320122	-0.181290
N	0.1747765156164086 0.3227967736261074 0.4350163140320122	-0.181290
N	0.3227967736261074 0.3252234843835914 0.4350163140320122	-0.181290
N	0.1772032263738926 0.1747765156164086 0.4350163140320122	-0.181290
N	0.6746860470458943 0.6772557299361123 0.5666132886495162	-0.180760
N	0.8253139529541057 0.8227442700638877 0.5666132886495162	-0.180761
N	0.6772557299361123 0.8253139529541057 0.5666132886495162	-0.180760
N	0.8227442700638877 0.6746860470458943 0.5666132886495162	-0.180761
	  	
