#======================================================================

# CRYSTAL DATA

#----------------------------------------------------------------------

data_VESTA_phase_1


_pd_phase_name                         VOFFIVE_6_Co_i
_cell_length_a                         17.42358
_cell_length_b                         17.42358
_cell_length_c                         15.30274
_cell_angle_alpha                      90
_cell_angle_beta                       90
_cell_angle_gamma                      90
_symmetry_space_group_name_H-M         P 1
_symmetry_Int_Tables_number            1

loop_
_symmetry_equiv_pos_as_xyz
   x, y, z

loop_
   _atom_site_label
   _atom_site_fract_x
   _atom_site_fract_y
   _atom_site_fract_z
   _atom_site_charge
N	0.2430813867415999 0.1382086071841402 0.1285998527557521	-0.183847
N	0.2569186132584000 0.3617914058158643 0.1285998527557521	-0.183847
N	0.3617914058158643 0.2430813867415999 0.1285998527557521	-0.183847
N	0.1382086071841402 0.2569186132584000 0.1285998527557521	-0.183847
N	0.7553740764164444 0.6380722985919502 0.3724478673495130	-0.185856
N	0.7446259235835556 0.8619277014080498 0.3724478673495130	-0.185856
N	0.6380722985919502 0.7446259235835556 0.3724478673495130	-0.185856
N	0.8619277014080498 0.7553740764164444 0.3724478673495130	-0.185856
N	0.7553740764164444 0.8619277014080498 0.8724478673495132	-0.185881
N	0.7446259235835556 0.6380722985919502 0.8724478673495132	-0.185880
N	0.6380722985919502 0.7553740764164444 0.8724478673495132	-0.185881
N	0.8619277014080498 0.7446259235835556 0.8724478673495132	-0.185881
N	0.2430813867415999 0.3617914058158643 0.6285998527557523	-0.183845
N	0.2569186132584000 0.1382086071841402 0.6285998527557523	-0.183844
N	0.3617914058158643 0.2569186132584000 0.6285998527557523	-0.183844
N	0.1382086071841402 0.2430813867415999 0.6285998527557523	-0.183845
C	0.1998554579361839 0.1009400511929905 0.1881994755101350	0.092198
C	0.1917564030817752 0.0217866812155503 0.1871601100948851	-0.181073
C	0.2318428666814952 0.9780956275466093 0.1251531478624124	0.108296
C	0.2776548634588983 0.0178162223381705 0.0648451716943585	-0.176834
C	0.2808155970529397 0.0973957541715119 0.0672084373673111	0.096385
C	0.2261118564649176 0.8937307627648504 0.1238630712290951	0.060545
C	0.2916880025181783 0.8488588954501919 0.1209221995098532	-0.170904
C	0.2870849689728959 0.7678867096741159 0.1220996195522505	0.084320
C	0.1464430783108032 0.7791077955273015 0.1247456933426263	-0.123809
C	0.1528891596635865 0.8577434885991381 0.1268867385661201	-0.135803
C	0.3001445550638208 0.3990599288070079 0.1881994755101350	0.092206
C	0.3082436099182295 0.4782133287844433 0.1871601100948851	-0.181076
C	0.2681571333185049 0.5219043724533907 0.1251531478624124	0.108296
C	0.2223451365411015 0.4821837926618272 0.0648451716943585	-0.176834
C	0.2191844029470602 0.4026042388284840 0.0672084373673111	0.096386
C	0.2738881435350822 0.6062692372351496 0.1238630712290951	0.060545
C	0.2083119844818241 0.6511411045498081 0.1209221995098532	-0.170905
C	0.2129150310271042 0.7321132903258841 0.1220996195522505	0.084319
C	0.3535569216891968 0.7208922044726985 0.1247456933426263	-0.123810
C	0.3471108403364135 0.6422565114008619 0.1268867385661201	-0.135803
C	0.3990599288070079 0.1998554579361839 0.1881994755101350	0.092199
C	0.4782133287844433 0.1917564030817752 0.1871601100948851	-0.181073
C	0.5219043724533907 0.2318428666814952 0.1251531478624124	0.108295
C	0.4821837926618272 0.2776548634588983 0.0648451716943585	-0.176835
C	0.4026042388284840 0.2808155970529397 0.0672084373673111	0.096385
C	0.6062692372351496 0.2261118564649176 0.1238630712290951	0.060545
C	0.6511411045498081 0.2916880025181783 0.1209221995098532	-0.170905
C	0.7321132903258841 0.2870849689728959 0.1220996195522505	0.084320
C	0.7208922044726985 0.1464430783108032 0.1247456933426263	-0.123809
C	0.6422565114008619 0.1528891596635865 0.1268867385661201	-0.135803
C	0.1009400511929905 0.3001445550638208 0.1881994755101350	0.092206
C	0.0217866812155503 0.3082436099182295 0.1871601100948851	-0.181076
C	0.9780956275466093 0.2681571333185049 0.1251531478624124	0.108296
C	0.0178162223381705 0.2223451365411015 0.0648451716943585	-0.176834
C	0.0973957541715119 0.2191844029470602 0.0672084373673111	0.096385
C	0.8937307627648504 0.2738881435350822 0.1238630712290951	0.060545
C	0.8488588954501919 0.2083119844818241 0.1209221995098532	-0.170904
C	0.7678867096741159 0.2129150310271042 0.1220996195522505	0.084319
C	0.7791077955273015 0.3535569216891968 0.1247456933426263	-0.123810
C	0.8577434885991381 0.3471108403364135 0.1268867385661201	-0.135803
C	0.7986386708452750 0.6016526721249392 0.3122025136698153	0.093189
C	0.8074738072652714 0.5224777687393790 0.3127222757132927	-0.178732
C	0.7678988947117683 0.4780573230814670 0.3745259103331190	0.108185
C	0.7215655073883738 0.5169741878533809 0.4349921046068815	-0.177857
C	0.7177012625340661 0.5964331385034315 0.4331344971269368	0.095674
C	0.7740337749974997 0.3936843125672365 0.3757766177472017	0.060540
C	0.7084460713184039 0.3488347309453564 0.3789144470688864	-0.172753
C	0.7129302927371206 0.2678825476490245 0.3779092283781299	0.086768
C	0.8535971106747493 0.2790202518412745 0.3753566523914414	-0.123419
C	0.8472429850887663 0.3576542189772130 0.3729629516966531	-0.136611
C	0.7013613291547250 0.8983473278750608 0.3122025136698153	0.093190
C	0.6925261927347286 0.9775222312606210 0.3127222757132927	-0.178732
C	0.7321011052882317 0.0219426989185350 0.3745259103331190	0.108184
C	0.7784344926116262 0.9830258651466199 0.4349921046068815	-0.177857
C	0.7822987374659339 0.9035668614965685 0.4331344971269368	0.095675
C	0.7259662250025003 0.1063156874327637 0.3757766177472017	0.060540
C	0.7915539286815961 0.1511652560546461 0.3789144470688864	-0.172753
C	0.7870697072628794 0.2321174523509755 0.3779092283781299	0.086767
C	0.6464028893252507 0.2209797481587255 0.3753566523914414	-0.123420
C	0.6527570149112337 0.1423457550227846 0.3729629516966531	-0.136612
C	0.6016526721249392 0.7013613291547250 0.3122025136698153	0.093189
C	0.5224777687393790 0.6925261927347286 0.3127222757132927	-0.178732
C	0.4780573230814670 0.7321011052882317 0.3745259103331190	0.108184
C	0.5169741878533809 0.7784344926116262 0.4349921046068815	-0.177857
C	0.5964331385034315 0.7822987374659339 0.4331344971269368	0.095674
C	0.3936843125672365 0.7259662250025003 0.3757766177472017	0.060540
C	0.3488347309453564 0.7915539286815961 0.3789144470688864	-0.172753
C	0.2678825476490245 0.7870697072628794 0.3779092283781299	0.086768
C	0.2790202518412745 0.6464028893252507 0.3753566523914414	-0.123419
C	0.3576542189772130 0.6527570149112337 0.3729629516966531	-0.136611
C	0.8983473278750608 0.7986386708452750 0.3122025136698153	0.093189
C	0.9775222312606210 0.8074738072652714 0.3127222757132927	-0.178733
C	0.0219426989185350 0.7678988947117683 0.3745259103331190	0.108185
C	0.9830258651466199 0.7215655073883738 0.4349921046068815	-0.177857
C	0.9035668614965685 0.7177012625340661 0.4331344971269368	0.095675
C	0.1063156874327637 0.7740337749974997 0.3757766177472017	0.060540
C	0.1511652560546461 0.7084460713184039 0.3789144470688864	-0.172753
C	0.2321174523509755 0.7129302927371206 0.3779092283781299	0.086767
C	0.2209797481587255 0.8535971106747493 0.3753566523914414	-0.123420
C	0.1423457550227846 0.8472429850887663 0.3729629516966531	-0.136611
C	0.7986386708452750 0.8983473278750608 0.8122024816698121	0.093188
C	0.8074738072652714 0.9775222312606210 0.8127223077132880	-0.178719
C	0.7678988947117683 0.0219426989185350 0.8745259103331189	0.108178
C	0.7215655073883738 0.9830258651466199 0.9349921366068770	-0.177857
C	0.7177012625340661 0.9035668614965685 0.9331344651269343	0.095678
C	0.7740337749974997 0.1063156874327637 0.8757765537472033	0.060540
C	0.7084460713184039 0.1511652560546461 0.8789144790688892	-0.172753
C	0.7129302927371206 0.2321174523509755 0.8779091653781351	0.086768
C	0.8535971106747493 0.2209797481587255 0.8753566523914418	-0.123419
C	0.8472429850887663 0.1423457550227846 0.8729629516966525	-0.136612
C	0.7013613291547250 0.6016526721249392 0.8122024816698121	0.093188
C	0.6925261927347286 0.5224777687393790 0.8127223077132880	-0.178719
C	0.7321011052882317 0.4780573230814670 0.8745259103331189	0.108178
C	0.7784344926116262 0.5169741878533809 0.9349921366068770	-0.177857
C	0.7822987374659339 0.5964331385034315 0.9331344651269343	0.095677
C	0.7259662250025003 0.3936843125672365 0.8757765537472033	0.060540
C	0.7915539286815961 0.3488347309453564 0.8789144790688892	-0.172752
C	0.7870697072628794 0.2678825476490245 0.8779091653781351	0.086767
C	0.6464028893252507 0.2790202518412745 0.8753566523914418	-0.123420
C	0.6527570149112337 0.3576542189772130 0.8729629516966525	-0.136611
C	0.6016526721249392 0.7986386708452750 0.8122024816698121	0.093188
C	0.5224777687393790 0.8074738072652714 0.8127223077132880	-0.178719
C	0.4780573230814670 0.7678988947117683 0.8745259103331189	0.108178
C	0.5169741878533809 0.7215655073883738 0.9349921366068770	-0.177857
C	0.5964331385034315 0.7177012625340661 0.9331344651269343	0.095678
C	0.3936843125672365 0.7740337749974997 0.8757765537472033	0.060541
C	0.3488347309453564 0.7084460713184039 0.8789144790688892	-0.172752
C	0.2678825476490245 0.7129302927371206 0.8779091653781351	0.086768
C	0.2790202518412745 0.8535971106747493 0.8753566523914418	-0.123419
C	0.3576542189772130 0.8472429850887663 0.8729629516966525	-0.136611
C	0.8983473278750608 0.7013613291547250 0.8122024816698121	0.093188
C	0.9775222312606210 0.6925261927347286 0.8127223077132880	-0.178719
C	0.0219426989185350 0.7321011052882317 0.8745259103331189	0.108178
C	0.9830258651466199 0.7784344926116262 0.9349921366068770	-0.177858
C	0.9035668614965685 0.7822987374659339 0.9331344651269343	0.095678
C	0.1063156874327637 0.7259662250025003 0.8757765537472033	0.060540
C	0.1511652560546461 0.7915539286815961 0.8789144790688892	-0.172753
C	0.2321174523509755 0.7870697072628794 0.8779091653781351	0.086767
C	0.2209797481587255 0.6464028893252507 0.8753566523914418	-0.123420
C	0.1423457550227846 0.6527570149112337 0.8729629516966525	-0.136611
C	0.1998554579361839 0.3990599288070079 0.6881994755101354	0.092199
C	0.1917564030817752 0.4782133287844433 0.6871600780948894	-0.181073
C	0.2318428666814952 0.5219043724533907 0.6251531398624118	0.108295
C	0.2776548634588983 0.4821837926618272 0.5648451356943628	-0.176834
C	0.2808155970529397 0.4026042388284840 0.5672084693673138	0.096385
C	0.2261118564649176 0.6062692372351496 0.6238631272290928	0.060545
C	0.2916880025181783 0.6511411045498081 0.6209221835098515	-0.170905
C	0.2870849689728959 0.7321132903258841 0.6220996665522508	0.084320
C	0.1464430783108032 0.7208922044726985 0.6247457013426272	-0.123810
C	0.1528891596635865 0.6422565114008619 0.6268867535661251	-0.135804
C	0.3001445550638208 0.1009400511929905 0.6881994755101354	0.092206
C	0.3082436099182295 0.0217866812155503 0.6871600780948894	-0.181076
C	0.2681571333185049 0.9780956275466093 0.6251531398624118	0.108296
C	0.2223451365411015 0.0178162223381705 0.5648451356943628	-0.176834
C	0.2191844029470602 0.0973957541715119 0.5672084693673138	0.096384
C	0.2738881435350822 0.8937307627648504 0.6238631272290928	0.060545
C	0.2083119844818241 0.8488588954501919 0.6209221835098515	-0.170905
C	0.2129150310271042 0.7678867096741159 0.6220996665522508	0.084319
C	0.3535569216891968 0.7791077955273015 0.6247457013426272	-0.123811
C	0.3471108403364135 0.8577434885991381 0.6268867535661251	-0.135803
C	0.3990599288070079 0.3001445550638208 0.6881994755101354	0.092207
C	0.4782133287844433 0.3082436099182295 0.6871600780948894	-0.181076
C	0.5219043724533907 0.2681571333185049 0.6251531398624118	0.108296
C	0.4821837926618272 0.2223451365411015 0.5648451356943628	-0.176834
C	0.4026042388284840 0.2191844029470602 0.5672084693673138	0.096384
C	0.6062692372351496 0.2738881435350822 0.6238631272290928	0.060545
C	0.6511411045498081 0.2083119844818241 0.6209221835098515	-0.170905
C	0.7321132903258841 0.2129150310271042 0.6220996665522508	0.084320
C	0.7208922044726985 0.3535569216891968 0.6247457013426272	-0.123810
C	0.6422565114008619 0.3471108403364135 0.6268867535661251	-0.135804
C	0.1009400511929905 0.1998554579361839 0.6881994755101354	0.092199
C	0.0217866812155503 0.1917564030817752 0.6871600780948894	-0.181073
C	0.9780956275466093 0.2318428666814952 0.6251531398624118	0.108295
C	0.0178162223381705 0.2776548634588983 0.5648451356943628	-0.176834
C	0.0973957541715119 0.2808155970529397 0.5672084693673138	0.096385
C	0.8937307627648504 0.2261118564649176 0.6238631272290928	0.060545
C	0.8488588954501919 0.2916880025181783 0.6209221835098515	-0.170905
C	0.7678867096741159 0.2870849689728959 0.6220996665522508	0.084319
C	0.7791077955273015 0.1464430783108032 0.6247457013426272	-0.123811
C	0.8577434885991381 0.1528891596635865 0.6268867535661251	-0.135803
H	0.1727644966316411 0.1360102722585329 0.2385703942179069	0.108787
H	0.1560181512556689 0.9943578499065787 0.2365568077155726	0.115903
H	0.3091590897295800 0.9871258569358703 0.0142344513759996	0.115693
H	0.3124701402594771 0.1302470466244220 0.0183956343297095	0.110664
H	0.3481670132048508 0.8759649712385514 0.1201774605350246	0.107299
H	0.0900685282882960 0.7518429962703748 0.1255065532733588	0.108336
H	0.1016142365319529 0.8935775911163343 0.1289521254860092	0.099180
H	0.3272354903683611 0.3639897547414660 0.2385703942179069	0.108781
H	0.3439818617443288 0.5056422030934221 0.2365568077155726	0.115903
H	0.1908408972704225 0.5128740890641252 0.0142344513759996	0.115693
H	0.1875298597405229 0.3697529393755769 0.0183956343297095	0.110664
H	0.1518329867951491 0.6240350287614486 0.1201774605350246	0.107299
H	0.4099314517117094 0.7481570037296252 0.1255065532733588	0.108335
H	0.3983857634680470 0.6064224088836657 0.1289521254860092	0.099180
H	0.3639897547414660 0.1727644966316411 0.2385703942179069	0.108788
H	0.5056422030934221 0.1560181512556689 0.2365568077155726	0.115903
H	0.5128740890641252 0.3091590897295800 0.0142344513759996	0.115693
H	0.3697529393755769 0.3124701402594771 0.0183956343297095	0.110664
H	0.6240350287614486 0.3481670132048508 0.1201774605350246	0.107299
H	0.7481570037296252 0.0900685282882960 0.1255065532733588	0.108336
H	0.6064224088836657 0.1016142365319529 0.1289521254860092	0.099180
H	0.1360102722585329 0.3272354903683611 0.2385703942179069	0.108781
H	0.9943578499065787 0.3439818617443288 0.2365568077155726	0.115904
H	0.9871258569358703 0.1908408972704225 0.0142344513759996	0.115693
H	0.1302470466244220 0.1875298597405229 0.0183956343297095	0.110664
H	0.8759649712385514 0.1518329867951491 0.1201774605350246	0.107299
H	0.7518429962703748 0.4099314517117094 0.1255065532733588	0.108335
H	0.8935775911163343 0.3983857634680470 0.1289521254860092	0.099180
H	0.8249110152719927 0.6374836720763678 0.2619759472063912	0.112741
H	0.8433269350953310 0.4956108688023254 0.2630136901052275	0.115692
H	0.6902638294121334 0.4856519747657624 0.4852400298698934	0.115798
H	0.6852226617754096 0.6283705390343435 0.4819832985920280	0.107219
H	0.6520185217977514 0.3760415293014928 0.3796787399085733	0.107245
H	0.9099337885991114 0.2516722346622801 0.3748970927898694	0.107838
H	0.8985649579864400 0.3934392012410600 0.3709733535534487	0.099353
H	0.6750889847280073 0.8625163279236322 0.2619759472063912	0.112741
H	0.6566730649046690 0.0043890961976681 0.2630136901052275	0.115692
H	0.8097361705878666 0.0143480522342435 0.4852400298698934	0.115798
H	0.8147773382245904 0.8716294609656565 0.4819832985920280	0.107220
H	0.8479814782022486 0.1239584706985070 0.3796787399085733	0.107244
H	0.5900662114008886 0.2483277653377199 0.3748970927898694	0.107838
H	0.6014350420135600 0.1065607987589399 0.3709733535534487	0.099354
H	0.6374836720763678 0.6750889847280073 0.2619759472063912	0.112741
H	0.4956108688023254 0.6566730649046690 0.2630136901052275	0.115691
H	0.4856519747657624 0.8097361705878666 0.4852400298698934	0.115799
H	0.6283705390343435 0.8147773382245904 0.4819832985920280	0.107219
H	0.3760415293014928 0.8479814782022486 0.3796787399085733	0.107245
H	0.2516722346622801 0.5900662114008886 0.3748970927898694	0.107838
H	0.3934392012410600 0.6014350420135600 0.3709733535534487	0.099354
H	0.8625163279236322 0.8249110152719927 0.2619759472063912	0.112741
H	0.0043890961976681 0.8433269350953310 0.2630136901052275	0.115692
H	0.0143480522342435 0.6902638294121334 0.4852400298698934	0.115798
H	0.8716294609656565 0.6852226617754096 0.4819832985920280	0.107220
H	0.1239584706985070 0.6520185217977514 0.3796787399085733	0.107244
H	0.2483277653377199 0.9099337885991114 0.3748970927898694	0.107837
H	0.1065607987589399 0.8985649579864400 0.3709733535534487	0.099353
H	0.8249110152719927 0.8625163279236322 0.7619759322063864	0.112756
H	0.8433269350953310 0.0043890961976681 0.7630137061052288	0.115690
H	0.6902638294121334 0.0143480522342435 0.9852400298698933	0.115799
H	0.6852226617754096 0.8716294609656565 0.9819832985920282	0.107219
H	0.6520185217977514 0.1239584706985070 0.8796787089085676	0.107245
H	0.9099337885991114 0.2483277653377199 0.8748970927898690	0.107838
H	0.8985649579864400 0.1065607987589399 0.8709733855534442	0.099353
H	0.6750889847280073 0.6374836720763678 0.7619759322063864	0.112756
H	0.6566730649046690 0.4956108688023254 0.7630137061052288	0.115690
H	0.8097361705878666 0.4856519747657624 0.9852400298698933	0.115799
H	0.8147773382245904 0.6283705390343435 0.9819832985920282	0.107219
H	0.8479814782022486 0.3760415293014928 0.8796787089085676	0.107244
H	0.5900662114008886 0.2516722346622801 0.8748970927898690	0.107838
H	0.6014350420135600 0.3934392012410600 0.8709733855534442	0.099353
H	0.6374836720763678 0.8249110152719927 0.7619759322063864	0.112756
H	0.4956108688023254 0.8433269350953310 0.7630137061052288	0.115690
H	0.4856519747657624 0.6902638294121334 0.9852400298698933	0.115799
H	0.6283705390343435 0.6852226617754096 0.9819832985920282	0.107219
H	0.3760415293014928 0.6520185217977514 0.8796787089085676	0.107245
H	0.2516722346622801 0.9099337885991114 0.8748970927898690	0.107838
H	0.3934392012410600 0.8985649579864400 0.8709733855534442	0.099353
H	0.8625163279236322 0.6750889847280073 0.7619759322063864	0.112756
H	0.0043890961976681 0.6566730649046690 0.7630137061052288	0.115689
H	0.0143480522342435 0.8097361705878666 0.9852400298698933	0.115799
H	0.8716294609656565 0.8147773382245904 0.9819832985920282	0.107219
H	0.1239584706985070 0.8479814782022486 0.8796787089085676	0.107244
H	0.2483277653377199 0.5900662114008886 0.8748970927898690	0.107838
H	0.1065607987589399 0.6014350420135600 0.8709733855534442	0.099353
H	0.1727644966316411 0.3639897547414660 0.7385704092179116	0.108788
H	0.1560181512556689 0.5056422030934221 0.7365567917155713	0.115903
H	0.3091590897295800 0.5128740890641252 0.5142344883759986	0.115693
H	0.3124701402594771 0.3697529393755769 0.5183956203297084	0.110664
H	0.3481670132048508 0.6240350287614486 0.6201774845350267	0.107298
H	0.0900685282882960 0.7481570037296252 0.6255065452733586	0.108336
H	0.1016142365319529 0.6064224088836657 0.6289521094860150	0.099180
H	0.3272354903683611 0.1360102722585329 0.7385704092179116	0.108782
H	0.3439818617443288 0.9943578499065787 0.7365567917155713	0.115904
H	0.1908408972704225 0.9871258569358703 0.5142344883759986	0.115693
H	0.1875298597405229 0.1302470466244220 0.5183956203297084	0.110663
H	0.1518329867951491 0.8759649712385514 0.6201774845350267	0.107299
H	0.4099314517117094 0.7518429962703748 0.6255065452733586	0.108335
H	0.3983857634680470 0.8935775911163343 0.6289521094860150	0.099179
H	0.3639897547414660 0.3272354903683611 0.7385704092179116	0.108782
H	0.5056422030934221 0.3439818617443288 0.7365567917155713	0.115904
H	0.5128740890641252 0.1908408972704225 0.5142344883759986	0.115693
H	0.3697529393755769 0.1875298597405229 0.5183956203297084	0.110664
H	0.6240350287614486 0.1518329867951491 0.6201774845350267	0.107299
H	0.7481570037296252 0.4099314517117094 0.6255065452733586	0.108335
H	0.6064224088836657 0.3983857634680470 0.6289521094860150	0.099180
H	0.1360102722585329 0.1727644966316411 0.7385704092179116	0.108788
H	0.9943578499065787 0.1560181512556689 0.7365567917155713	0.115903
H	0.9871258569358703 0.3091590897295800 0.5142344883759986	0.115693
H	0.1302470466244220 0.3124701402594771 0.5183956203297084	0.110663
H	0.8759649712385514 0.3481670132048508 0.6201774845350267	0.107298
H	0.7518429962703748 0.0900685282882960 0.6255065452733586	0.108335
H	0.8935775911163343 0.1016142365319529 0.6289521094860150	0.099180
F	0.3137210018220086 0.1640109527378424 0.3800332180589532	-0.599246
F	0.1862789981779913 0.3359890472621576 0.3800332180589532	-0.599247
F	0.3359890472621576 0.3137210018220086 0.3800332180589532	-0.599247
F	0.1640109527378424 0.1862789981779913 0.3800332180589532	-0.599246
F	0.6870112001169676 0.6633542774457080 0.1227234511234201	-0.599282
F	0.8129887998830324 0.8366457225542920 0.1227234511234202	-0.599282
F	0.6633542774457080 0.8129887998830324 0.1227234511234201	-0.599283
F	0.8366457225542920 0.6870112001169676 0.1227234511234201	-0.599282
F	0.6870112001169676 0.8366457225542920 0.6227234431234198	-0.599284
F	0.8129887998830324 0.6633542774457080 0.6227234431234198	-0.599283
F	0.6633542774457080 0.6870112001169676 0.6227234431234198	-0.599283
F	0.8366457225542920 0.8129887998830324 0.6227234431234198	-0.599284
F	0.3137210018220086 0.3359890472621576 0.8800332180589525	-0.599250
F	0.1862789981779913 0.1640109527378424 0.8800332180589525	-0.599249
F	0.3359890472621576 0.1862789981779913 0.8800332180589525	-0.599249
F	0.1640109527378424 0.3137210018220086 0.8800332180589525	-0.599250
F	0.2500000000000000 0.2500000000000000 0.4965794925151487	-0.620838
F	0.7500000000000000 0.7500000000000000 0.2394291659752813	-0.619934
F	0.7500000000000000 0.7500000000000000 0.7394291969752804	-0.619934
F	0.2500000000000000 0.2500000000000000 -0.0034204754848559	-0.620850
O	0.2500000000000000 0.2500000000000000 0.2611576376420989	-0.831187
O	0.7500000000000000 0.7500000000000000 0.0040633923386460	-0.828493
O	0.7500000000000000 0.7500000000000000 0.5040633973386430	-0.828494
O	0.2500000000000000 0.2500000000000000 0.7611576226420941	-0.831180
Co	0.2500000000000000 0.2500000000000000 0.1307336640575778	0.647399
Co	0.7500000000000000 0.7500000000000000 0.3736584515199193	0.647505
Co	0.7500000000000000 0.7500000000000000 0.8736583875199135	0.647517
Co	0.2500000000000000 0.2500000000000000 0.6307337120575820	0.647366
V	0.2500000000000000 0.2500000000000000 0.3686624758402801	2.260616
V	0.7500000000000000 0.7500000000000000 0.1115525522788407	2.257688
V	0.7500000000000000 0.7500000000000000 0.6115525682788349	2.257688
V	0.2500000000000000 0.2500000000000000 0.8686624758402796	2.260613
	  	
