#======================================================================

# CRYSTAL DATA

#----------------------------------------------------------------------

data_VESTA_phase_1


_pd_phase_name                         VOFFIVE_4_Zn_i
_cell_length_a                         23.86073
_cell_length_b                         20.60816
_cell_length_c                         9.71343
_cell_angle_alpha                      90
_cell_angle_beta                       90
_cell_angle_gamma                      90
_symmetry_space_group_name_H-M         P 1
_symmetry_Int_Tables_number            1

loop_
_symmetry_equiv_pos_as_xyz
   x, y, z

loop_
   _atom_site_label
   _atom_site_fract_x
   _atom_site_fract_y
   _atom_site_fract_z
   _atom_site_charge
C	0.4138203579351173 0.5957188304708114 0.6302239177286605	0.103003
C	0.3702257075521359 0.5512091267926057 0.6283432283549892	-0.172119
C	0.2763461240474935 0.4502782380288030 0.6284187588475488	-0.120632
C	0.2314130504147768 0.4075287959414173 0.6277607837721295	-0.111891
C	0.1323475699171759 0.3215251334506719 0.6261525209588902	-0.171610
C	0.0863103245898100 0.2804271315511961 0.6287948284079269	0.095935
C	0.9138203999351138 0.0957188304708120 0.6302239177286606	0.103003
C	0.8702257495521400 0.0512091207926055 0.6283432283549892	-0.172115
C	0.7763461450474920 0.9502782840288070 0.6284187588475488	-0.120632
C	0.7314130704147787 0.9075288419414138 0.6277607837721295	-0.111891
C	0.6323475699171756 0.8215251334506718 0.6261525209588902	-0.171610
C	0.5863103195898060 0.7804271785511968 0.6287948284079269	0.095934
C	0.5861796420648826 0.4042811695291879 0.1302238787286610	0.103003
C	0.6297742924478634 0.4487908732073939 0.1283432123549883	-0.172121
C	0.7236538549525080 0.5497217619711968 0.1284187898475475	-0.120632
C	0.7685869295852213 0.5924712040585829 0.1277608297721264	-0.111891
C	0.8676524710828243 0.6784748195493279 0.1261525359588951	-0.171610
C	0.9136897224101904 0.7195728214488032 0.1287948444079282	0.095935
C	0.0861796470648867 0.9042811235291919 0.1302238787286610	0.103003
C	0.1297742714478584 0.9487908272073976 0.1283432123549883	-0.172118
C	0.2236538549525081 0.0497217569711930 0.1284187898475475	-0.120631
C	0.2685869495852236 0.0924711920585889 0.1277608297721264	-0.111891
C	0.3676524300828240 0.1784748665493283 0.1261525359588951	-0.171610
C	0.4136896804101942 0.2195728454488054 0.1287948444079282	0.095935
C	0.5859830955656338 0.5961535078142133 0.8661560045719924	0.103899
C	0.6296025094256907 0.5515844519481237 0.8694054728070892	-0.173820
C	0.7235517049529397 0.4504277267105951 0.8704608990072658	-0.117680
C	0.7684760067759663 0.4076556741872935 0.8720118989850453	-0.111673
C	0.8681413932577507 0.3210017810257010 0.8725912662312379	-0.175197
C	0.9142519224289885 0.2798802221785558 0.8676394065881842	0.095334
C	0.0859831005656378 0.0961535078142130 0.8661560045719924	0.103904
C	0.1296024884256854 0.0515844459481229 0.8694054728070892	-0.173821
C	0.2235517049529397 0.9504277727105991 0.8704608990072658	-0.117681
C	0.2684760267759681 0.9076557201872902 0.8720118989850453	-0.111672
C	0.3681413522577506 0.8210017810257014 0.8725912662312379	-0.175197
C	0.4142518804289920 0.7798802691785561 0.8676394065881842	0.095334
C	0.4140169044343661 0.4038464921857869 0.3661560355719916	0.103896
C	0.3703974905743094 0.4484155480518765 0.3694055348070873	-0.173822
C	0.2764482740470622 0.5495722732894047 0.3704608990072654	-0.117679
C	0.2315239732240318 0.5923443258127065 0.3720118679850465	-0.111673
C	0.1318586477422492 0.6789981719742982 0.3725912042312398	-0.175200
C	0.0857481245710120 0.7201197308214439 0.3676393445881868	0.095354
C	0.9140169464343626 0.9038464461857900 0.3661560355719916	0.103905
C	0.8703975325743127 0.9484155020518796 0.3694055348070873	-0.173820
C	0.7764482950470603 0.0495722682894009 0.3704608990072654	-0.117680
C	0.7315239932240337 0.0923443138127126 0.3720118679850465	-0.111672
C	0.6318586477422491 0.1789982189742988 0.3725912042312398	-0.175200
C	0.5857481195710079 0.2201197548214460 0.3676393445881868	0.095354
C	0.5859830955656338 0.4038464921857869 0.3661560355719915	0.103897
C	0.6296025094256907 0.4484155480518765 0.3694055348070873	-0.173822
C	0.7235517049529397 0.5495722732894047 0.3704608990072654	-0.117679
C	0.7684760067759663 0.5923443258127065 0.3720118679850465	-0.111673
C	0.8681413932577507 0.6789981719742982 0.3725912042312398	-0.175200
C	0.9142519224289885 0.7201197308214439 0.3676393445881868	0.095356
C	0.0859831005656378 0.9038464461857900 0.3661560355719916	0.103906
C	0.1296024884256854 0.9484155020518796 0.3694055348070873	-0.173820
C	0.2235517049529397 0.0495722682894009 0.3704608990072654	-0.117680
C	0.2684760267759681 0.0923443138127126 0.3720118679850465	-0.111672
C	0.3681413522577506 0.1789982189742988 0.3725912042312398	-0.175200
C	0.4142518804289920 0.2201197548214460 0.3676393445881868	0.095356
C	0.4140169044343661 0.5961535078142133 0.8661560045719924	0.103900
C	0.3703974905743094 0.5515844519481237 0.8694054728070894	-0.173820
C	0.2764482740470622 0.4504277267105951 0.8704608990072658	-0.117680
C	0.2315239732240318 0.4076556741872935 0.8720118989850453	-0.111673
C	0.1318586477422492 0.3210017810257010 0.8725912662312379	-0.175197
C	0.0857481245710120 0.2798802221785558 0.8676394065881842	0.095337
C	0.9140169464343626 0.0961535078142130 0.8661560045719924	0.103906
C	0.8703975325743127 0.0515844459481229 0.8694054728070894	-0.173822
C	0.7764482950470603 0.9504277727105991 0.8704608990072658	-0.117681
C	0.7315239932240337 0.9076557201872902 0.8720118989850453	-0.111672
C	0.6318586477422491 0.8210017810257014 0.8725912662312379	-0.175197
C	0.5857481195710079 0.7798802691785561 0.8676394065881842	0.095336
C	0.4138203579351173 0.4042811695291879 0.1302238787286609	0.103005
C	0.3702257075521359 0.4487908732073939 0.1283432123549883	-0.172121
C	0.2763461240474935 0.5497217619711968 0.1284187898475475	-0.120632
C	0.2314130504147768 0.5924712040585829 0.1277608297721264	-0.111891
C	0.1323475699171759 0.6784748195493279 0.1261525359588951	-0.171610
C	0.0863103245898100 0.7195728214488032 0.1287948444079282	0.095937
C	0.9138203999351138 0.9042811235291919 0.1302238787286610	0.103004
C	0.8702257495521400 0.9487908272073976 0.1283432123549883	-0.172118
C	0.7763461450474920 0.0497217569711930 0.1284187898475475	-0.120631
C	0.7314130704147787 0.0924711920585889 0.1277608297721264	-0.111891
C	0.6323475699171756 0.1784748665493283 0.1261525359588951	-0.171610
C	0.5863103195898060 0.2195728454488054 0.1287948444079282	0.095937
C	0.5861796420648826 0.5957188304708114 0.6302239177286606	0.103004
C	0.6297742924478634 0.5512091267926057 0.6283432283549892	-0.172119
C	0.7236538549525080 0.4502782380288030 0.6284187588475489	-0.120632
C	0.7685869295852213 0.4075287959414173 0.6277607837721295	-0.111891
C	0.8676524710828243 0.3215251334506719 0.6261525209588902	-0.171610
C	0.9136897224101904 0.2804271315511961 0.6287948284079269	0.095937
C	0.0861796470648867 0.0957188304708120 0.6302239177286606	0.103004
C	0.1297742714478584 0.0512091207926055 0.6283432283549892	-0.172115
C	0.2236538549525081 0.9502782840288070 0.6284187588475488	-0.120631
C	0.2685869495852236 0.9075288419414138 0.6277607837721295	-0.111891
C	0.3676524300828240 0.8215251334506718 0.6261525209588902	-0.171610
C	0.4136896804101942 0.7804271785511968 0.6287948284079269	0.095936
C	0.3465165572046232 0.5252677037280616 0.7490867252967285	0.114710
C	0.3003212678271527 0.4758878511096359 0.7493370311166059	0.070323
C	0.2063818149192879 0.3858433785602871 0.7500474518341583	0.064873
C	0.1569757960586808 0.3427086561700840 0.7498029523121794	0.104547
C	0.8465165982046230 0.0252677017280613 0.7490867252967285	0.114700
C	0.8003213308271541 0.9758878971096395 0.7493370311166059	0.070323
C	0.7063818149192881 0.8858433785602867 0.7500474518341583	0.064873
C	0.6569758170586791 0.8427086561700841 0.7498029523121794	0.104547
C	0.6534834427953768 0.4747322962719385 0.2490867102967307	0.114710
C	0.6996786691728459 0.5241121028903605 0.2493370161166077	0.070322
C	0.7936181850807119 0.6141566214397133 0.2500474368341609	0.064873
C	0.8430241829413209 0.6572913438299159 0.2498029373121817	0.104547
C	0.1534834327953759 0.9747322492719380 0.2490867102967307	0.114699
C	0.1996787111728419 0.0241121398903598 0.2493370161166077	0.070322
C	0.2936181850807122 0.1141566324397175 0.2500474368341609	0.064873
C	0.3430242039413192 0.1572913668299143 0.2498029373121817	0.104547
C	0.6534834427953768 0.5252677037280616 0.7490867252967285	0.114710
C	0.6996786691728459 0.4758878511096359 0.7493370311166059	0.070323
C	0.7936181850807119 0.3858433785602871 0.7500474518341583	0.064873
C	0.8430241829413209 0.3427086561700840 0.7498029523121794	0.104547
C	0.1534834327953759 0.0252677017280613 0.7490867252967285	0.114700
C	0.1996787111728419 0.9758878971096395 0.7493370311166059	0.070323
C	0.2936181850807122 0.8858433785602867 0.7500474518341583	0.064873
C	0.3430242039413192 0.8427086561700841 0.7498029523121794	0.104547
C	0.3465165572046232 0.4747322962719385 0.2490867102967307	0.114710
C	0.3003212678271527 0.5241121028903605 0.2493370161166077	0.070322
C	0.2063818149192879 0.6141566214397133 0.2500474368341609	0.064873
C	0.1569757960586808 0.6572913438299159 0.2498029373121817	0.104547
C	0.8465165982046230 0.9747322492719380 0.2490867102967307	0.114699
C	0.8003213308271541 0.0241121398903598 0.2493370161166077	0.070322
C	0.7063818149192881 0.1141566324397175 0.2500474368341609	0.064873
C	0.6569758170586791 0.1572913668299143 0.2498029373121817	0.104547
H	0.4319665861026419 0.6146659746747284 0.5349904181810806	0.112378
H	0.3563537621661429 0.5383505725854106 0.5266830497239732	0.102951
H	0.2920724019336661 0.4625611304497728 0.5280297317780935	0.086479
H	0.2159750246056744 0.3913548056809388 0.5279490924758619	0.103367
H	0.1482896074572810 0.3362137403800752 0.5258486578600640	0.118690
H	0.0666882212353298 0.2624550991921307 0.5342148338672774	0.113405
H	0.9319665861026419 0.1146659516747302 0.5349904181810806	0.112376
H	0.8563537621661423 0.0383505925854048 0.5266830497239732	0.102951
H	0.7920723399336678 0.9625611304497725 0.5280297317780935	0.086477
H	0.7159750036056760 0.8913548526809394 0.5279490924758619	0.103367
H	0.6482896074572809 0.8362137633800736 0.5258486578600640	0.118690
H	0.5666882062353321 0.7624550991921307 0.5342148338672774	0.113403
H	0.5680334138973581 0.3853340483252698 0.0349903881810782	0.112376
H	0.6436462378338577 0.4616494274145895 0.0266830497239733	0.102951
H	0.7079276600663322 0.5374388695502275 0.0280297937780916	0.086478
H	0.7840249963943240 0.6086451943190609 0.0279490614758560	0.103368
H	0.8517103505427156 0.6637862836199268 0.0258486888600629	0.118689
H	0.9333118357646643 0.7375449008078693 0.0342148028672782	0.113405
H	0.0680333988973533 0.8853340713252754 0.0349903881810782	0.112376
H	0.1436462688338563 0.9616493814145927 0.0266830497239733	0.102951
H	0.2079276190663322 0.0374388755502280 0.0280297937780916	0.086477
H	0.2840249963943240 0.1086451823190601 0.0279490614758560	0.103368
H	0.3517103925427187 0.1637862716199256 0.0258486888600629	0.118689
H	0.4333117527646680 0.2375448768078673 0.0342148028672782	0.113405
H	0.5681345472756012 0.6149285142718227 -0.0383397319565336	0.103974
H	0.6432314431039036 0.5388769586948712 -0.0286184351746023	0.101797
H	0.7075888779486339 0.4628544030981507 -0.0294860372002762	0.085924
H	0.7837623829595718 0.3916003099432732 -0.0278721924809001	0.103928
H	0.8526157858610068 0.3352552118295684 -0.0264025490451036	0.118203
H	0.9339718969327837 0.2621835887631203 -0.0379064878249087	0.103318
H	0.0681345322755966 0.1149284912718245 -0.0383397319565336	0.103976
H	0.1432314741039023 0.0388769786948659 -0.0286184351746023	0.101800
H	0.2075888369486340 0.9628544030981505 -0.0294860372002762	0.085924
H	0.2837623829595717 0.8916003569432734 -0.0278721924809001	0.103928
H	0.3526158278610100 0.8352552348295662 -0.0264025490451036	0.118203
H	0.4339718139327871 0.7621835887631202 -0.0379064878249087	0.103318
H	0.4318654527243986 0.3850715087281753 0.4616602890434645	0.103975
H	0.3567685568960967 0.4611230413051285 0.4713815898253962	0.101803
H	0.2924111840513643 0.5371455969018495 0.4705139397997254	0.085924
H	0.2162376380404263 0.6083996900567269 0.4721278515190964	0.103928
H	0.1473841721389899 0.6647448121704341 0.4735974009548921	0.118202
H	0.0660281600672106 0.7378164112368798 0.4620934961750973	0.103304
H	0.9318654527243988 0.8850715317281811 0.4616602890434645	0.103976
H	0.8567685568960964 0.9611229953051321 0.4713815898253962	0.101800
H	0.7924111220513661 0.0371456029018497 0.4705139397997254	0.085924
H	0.7162376170404282 0.1083996780567260 0.4721278515190964	0.103929
H	0.6473841721389897 0.1647448001704326 0.4735974009548921	0.118202
H	0.5660281450672127 0.2378163872368776 0.4620934961750973	0.103304
H	0.5681345472756012 0.3850715087281753 0.4616602890434645	0.103975
H	0.6432314431039036 0.4611230413051285 0.4713815898253962	0.101803
H	0.7075888779486339 0.5371455969018495 0.4705139397997254	0.085925
H	0.7837623829595718 0.6083996900567269 0.4721278515190964	0.103928
H	0.8526157858610068 0.6647448121704341 0.4735974009548921	0.118202
H	0.9339718969327837 0.7378164112368798 0.4620934961750973	0.103304
H	0.0681345322755966 0.8850715317281811 0.4616602890434645	0.103976
H	0.1432314741039023 0.9611229953051321 0.4713815898253962	0.101800
H	0.2075888369486340 0.0371456029018497 0.4705139397997254	0.085924
H	0.2837623829595717 0.1083996780567260 0.4721278515190964	0.103928
H	0.3526158278610100 0.1647448001704326 0.4735974009548921	0.118202
H	0.4339718139327871 0.2378163872368776 0.4620934961750973	0.103304
H	0.4318654527243986 0.6149285142718227 -0.0383397319565336	0.103974
H	0.3567685568960967 0.5388769586948712 -0.0286184351746023	0.101798
H	0.2924111840513643 0.4628544030981507 -0.0294860372002762	0.085924
H	0.2162376380404263 0.3916003099432732 -0.0278721924809001	0.103927
H	0.1473841721389899 0.3352552118295684 -0.0264025490451036	0.118203
H	0.0660281600672106 0.2621835887631203 -0.0379064878249087	0.103319
H	0.9318654527243988 0.1149284912718245 -0.0383397319565336	0.103977
H	0.8567685568960964 0.0388769786948659 -0.0286184351746023	0.101800
H	0.7924111220513661 0.9628544030981505 -0.0294860372002762	0.085924
H	0.7162376170404282 0.8916003569432734 -0.0278721924809001	0.103928
H	0.6473841721389897 0.8352552348295662 -0.0264025490451036	0.118203
H	0.5660281450672127 0.7621835887631202 -0.0379064878249087	0.103318
H	0.4319665861026419 0.3853340483252698 0.0349903881810782	0.112376
H	0.3563537621661429 0.4616494274145895 0.0266830497239733	0.102951
H	0.2920724019336661 0.5374388695502275 0.0280297937780916	0.086478
H	0.2159750246056744 0.6086451943190609 0.0279490614758560	0.103368
H	0.1482896074572810 0.6637862836199268 0.0258486888600629	0.118689
H	0.0666882212353298 0.7375449008078693 0.0342148028672782	0.113405
H	0.9319665861026419 0.8853340713252754 0.0349903881810782	0.112376
H	0.8563537621661423 0.9616493814145927 0.0266830497239733	0.102951
H	0.7920723399336678 0.0374388755502280 0.0280297937780916	0.086477
H	0.7159750036056760 0.1086451823190601 0.0279490614758560	0.103368
H	0.6482896074572809 0.1637862716199256 0.0258486888600629	0.118689
H	0.5666882062353321 0.2375448768078673 0.0342148028672782	0.113405
H	0.5680334138973581 0.6146659746747284 0.5349904181810806	0.112378
H	0.6436462378338577 0.5383505725854106 0.5266830497239732	0.102951
H	0.7079276600663322 0.4625611304497728 0.5280297317780935	0.086479
H	0.7840249963943240 0.3913548056809388 0.5279490924758619	0.103367
H	0.8517103505427156 0.3362137403800752 0.5258486578600640	0.118690
H	0.9333118357646643 0.2624550991921307 0.5342148338672774	0.113405
H	0.0680333988973533 0.1146659516747302 0.5349904181810806	0.112377
H	0.1436462688338563 0.0383505925854048 0.5266830497239732	0.102951
H	0.2079276190663322 0.9625611304497725 0.5280297317780935	0.086477
H	0.2840249963943240 0.8913548526809394 0.5279490924758619	0.103367
H	0.3517103925427187 0.8362137633800736 0.5258486578600640	0.118690
H	0.4333117527646680 0.7624550991921307 0.5342148338672774	0.113403
Zn	0.5000000000000000 0.6885128900789592 0.7195496965849965	0.691546
Zn	-0.0000000000000000 0.1885128900789594 0.7195496965849965	0.691570
Zn	0.5000000000000000 0.3114871099210405 0.2195496815849988	0.691571
Zn	-0.0000000000000000 0.8114870629210404 0.2195496815849988	0.691570
F	0.5000000000000000 0.6879124943349139 0.5188048998792979	-0.602821
F	-0.0000000000000000 0.1879125283349167 0.5188048998792979	-0.602835
F	0.5000000000000000 0.3120874826650878 0.0188048688792991	-0.602835
F	-0.0000000000000000 0.8120874596650894 0.0188048688792991	-0.602835
F	0.4467959525929628 0.7460126896702027 0.2605815340032247	-0.584726
F	0.5531472000611098 0.6229510194429391 0.2609683119914632	-0.580665
F	0.9467959525929625 0.2460127356702000 0.2605815340032247	-0.584726
F	0.0531472000611101 0.1229510314429327 0.2609683119914632	-0.580664
F	0.5532040474070375 0.2539872643298002 0.7605815490032223	-0.584728
F	0.4468527999388899 0.3770489805570613 0.7609683269914611	-0.580663
F	0.0532040264070392 0.7539873103297973 0.7605815490032223	-0.584728
F	0.9468527999388902 0.8770490265570647 0.7609683269914611	-0.580662
F	0.5532040474070375 0.7460126896702027 0.2605815340032247	-0.584726
F	0.4468527999388899 0.6229510194429391 0.2609683119914632	-0.580665
F	0.0532040264070392 0.2460127356702000 0.2605815340032247	-0.584726
F	0.9468527999388902 0.1229510314429327 0.2609683119914632	-0.580664
F	0.4467959525929628 0.2539872643298002 0.7605815490032223	-0.584728
F	0.5531472000611098 0.3770489805570613 0.7609683269914611	-0.580663
F	0.9467959525929625 0.7539873103297973 0.7605815490032223	-0.584728
F	0.0531472000611101 0.8770490265570647 0.7609683269914611	-0.580662
O	0.5000000000000000 0.6847738922389425 0.0542012288036587	-0.788064
O	-0.0000000000000000 0.1847739262389452 0.0542012288036587	-0.788073
O	0.5000000000000000 0.3152260847610594 0.5542012518036571	-0.788074
O	-0.0000000000000000 0.8152260617610608 0.5542012518036571	-0.788074
N	0.4362871213765860 0.6178895896396864 0.7480141475295409	-0.219274
N	0.5634716337080952 0.7596360734375213 0.7478200695149794	-0.226540
N	0.9362871623765858 0.1178896006396835 0.7480141475295409	-0.219277
N	0.0634716497080964 0.2596360264375204 0.7478200695149794	-0.226543
N	0.5637128786234140 0.3821103873603156 0.2480141325295430	-0.219280
N	0.4365283662919049 0.2403639495624775 0.2478200545149815	-0.226543
N	0.0637128786234140 0.8821104103603136 0.2480141325295430	-0.219279
N	0.9365283662919048 0.7403639265624788 0.2478200545149815	-0.226543
N	0.5637128786234140 0.6178895896396864 0.7480141475295409	-0.219274
N	0.4365283662919050 0.7596360734375213 0.7478200695149794	-0.226539
N	0.0637128786234139 0.1178896006396835 0.7480141475295408	-0.219277
N	0.9365283662919048 0.2596360264375204 0.7478200695149795	-0.226543
N	0.4362871213765860 0.3821103873603156 0.2480141325295430	-0.219280
N	0.5634716337080952 0.2403639495624775 0.2478200545149815	-0.226543
N	0.9362871623765858 0.8821104103603136 0.2480141325295430	-0.219279
N	0.0634716497080964 0.7403639265624787 0.2478200545149815	-0.226543
V	0.5000000000000000 0.6845599510170077 0.2220293136043028	2.216917
V	-0.0000000000000000 0.1845599970170041 0.2220293136043028	2.216919
V	0.5000000000000000 0.3154400029829958 0.7220293286043006	2.216919
V	-0.0000000000000000 0.8154400489829923 0.7220293286043006	2.216919
	  	
