#======================================================================

# CRYSTAL DATA

#----------------------------------------------------------------------

data_VESTA_phase_1


_pd_phase_name                         VOFFIVE_16_Zn_i
_cell_length_a                         25.16579
_cell_length_b                         25.16579
_cell_length_c                         7.63524
_cell_angle_alpha                      90
_cell_angle_beta                       90
_cell_angle_gamma                      90
_symmetry_space_group_name_H-M         P 1
_symmetry_Int_Tables_number            1

loop_
_symmetry_equiv_pos_as_xyz
   x, y, z

loop_
   _atom_site_label
   _atom_site_fract_x
   _atom_site_fract_y
   _atom_site_fract_z
   _atom_site_charge
C	0.4778486784903410 0.3870399461843733 0.3665988941436830	0.099957
C	0.4767376912088281 0.3318467115922190 0.3618253496376277	-0.173213
C	0.9549424925773460 0.6130184666496032 0.9433676609774830	-0.125922
C	0.9550961850626842 0.5578333305623383 0.9441210733352404	-0.123675
C	0.5221513595096621 0.6129600538156268 0.3665988941436830	0.099957
C	0.5232622707911759 0.6681532504077849 0.3618253496376277	-0.173213
C	0.0450575024226501 0.3869815333503970 0.9433676609774830	-0.125922
C	0.0449038199373126 0.4421666694376615 0.9441210733352404	-0.123675
C	0.6129600538156268 0.4778486784903410 0.3665988941436830	0.099957
C	0.6681532504077849 0.4767376912088282 0.3618253496376277	-0.173213
C	0.3869815333503970 0.9549424925773460 0.9433676609774830	-0.125922
C	0.4421666694376615 0.9550961850626842 0.9441210733352404	-0.123675
C	0.3870399461843733 0.5221513595096621 0.3665988941436830	0.099957
C	0.3318467115922190 0.5232622707911759 0.3618253496376277	-0.173213
C	0.6130184666496032 0.0450575024226501 0.9433676609774830	-0.125922
C	0.5578333305623383 0.0449038199373126 0.9441210733352404	-0.123675
C	0.5224357031202288 0.3868786486141855 0.6327322104008550	0.099960
C	0.5233130325473051 0.3317294064562274 0.6377490246957390	-0.173808
C	0.0450541214183447 0.6130174340805584 0.0566125508671732	-0.125853
C	0.0449033831295444 0.5578327386504348 0.0558409077329699	-0.123655
C	0.4775643348797748 0.6131213513858143 0.6327322104008550	0.099960
C	0.4766869294526990 0.6682705555437765 0.6377490246957390	-0.173808
C	0.9549458735816515 0.3869825659194421 0.0566125508671732	-0.125853
C	0.9550966218704526 0.4421672613495650 0.0558409077329699	-0.123655
C	0.3868786486141855 0.4775643348797748 0.6327322104008550	0.099960
C	0.3317294064562274 0.4766869294526990 0.6377490246957390	-0.173808
C	0.6130174340805584 0.9549458735816515 0.0566125508671732	-0.125853
C	0.5578327386504348 0.9550966218704526 0.0558409077329699	-0.123655
C	0.6131213513858143 0.5224357031202288 0.6327322104008550	0.099960
C	0.6682705555437765 0.5233130325473051 0.6377490246957390	-0.173808
C	0.3869825659194421 0.0450541214183447 0.0566125508671732	-0.125853
C	0.4421672613495650 0.0449033831295444 0.0558409077329699	-0.123655
C	0.5450541264183485 0.8869825659194416 0.5566125588671742	-0.125861
C	0.5449033781295474 0.9421672613495652 0.5558409437329730	-0.123651
C	0.0224356861202306 0.1131213423858173 0.1327322424008502	0.099960
C	0.0233130705473010 0.1682705745437744 0.1377490246957393	-0.173808
C	0.4549459125816511 0.1130174240805571 0.5566125588671742	-0.125853
C	0.4550966218704524 0.0578327286504341 0.5558409437329730	-0.123655
C	0.9775642588797681 0.8868786486141857 0.1327322424008502	0.099960
C	0.9766869294526989 0.8317294064562275 0.1377490246957393	-0.173808
C	0.1130174240805571 0.5450541264183485 0.5566125588671742	-0.125861
C	0.0578327286504341 0.5449033781295474 0.5558409437329730	-0.123651
C	0.8868786486141857 0.0224356861202306 0.1327322424008502	0.099960
C	0.8317294064562275 0.0233130705473010 0.1377490246957393	-0.173808
C	0.8869825659194416 0.4549459125816511 0.5566125588671742	-0.125853
C	0.9421672613495652 0.4550966218704524 0.5558409437329730	-0.123655
C	0.1131213423858173 0.9775642588797681 0.1327322424008502	0.099960
C	0.1682705745437744 0.9766869294526989 0.1377490246957393	-0.173808
C	0.4549425315773454 0.8869815333503968 0.4433676609774829	-0.125982
C	0.4550961850626844 0.9421666694376617 0.4441210733352406	-0.123646
C	0.9778486024903348 0.1129600448156297 0.8665988941436833	0.099957
C	0.9767376912088280 0.1681532694077830 0.8618253176376248	-0.173212
C	0.5450575074226540 0.1130184566496023 0.4433676609774829	-0.125922
C	0.5449038149373158 0.0578333205623376 0.4441210733352406	-0.123675
C	0.0221513425096642 0.8870399461843732 0.8665988941436833	0.099957
C	0.0232623087911717 0.8318467115922190 0.8618253176376248	-0.173212
C	0.8869815333503968 0.5450575074226540 0.4433676609774829	-0.125922
C	0.9421666694376617 0.5449038149373158 0.4441210733352406	-0.123675
C	0.1129600448156297 0.0221513425096642 0.8665988941436833	0.099957
C	0.1681532694077830 0.0232623087911717 0.8618253176376248	-0.173212
C	0.1130184566496023 0.4549425315773454 0.4433676609774829	-0.125982
C	0.0578333205623376 0.4550961850626844 0.4441210733352406	-0.123647
C	0.8870399461843732 0.9778486024903348 0.8665988941436833	0.099957
C	0.8318467115922190 0.9767376912088280 0.8618253176376248	-0.173212
C	0.4999556506553220 0.3028459979003414 0.4998112687254110	0.173980
C	0.4999354560508021 0.2464546059359357 0.4998339693218824	-0.114171
C	0.4999875993757095 0.1979786679840339 0.4999377309783554	-0.096707
C	0.5000015726672684 0.1416037059524705 0.4999894976875051	0.124565
C	0.4999998629203428 0.0292529629201869 0.4999727376832609	0.066068
C	0.0000443493446779 0.8028460179003429 -0.0001887312745888	0.173980
C	0.0000645439491981 0.7464546249359338 -0.0001660306781176	-0.114171
C	0.0000124006242908 0.6979786679840342 -0.0000622690216446	-0.096707
C	-0.0000015726672683 0.6416037059524701 -0.0000105023124948	0.124565
C	0.0000001370796570 0.5292529589201865 -0.0000272623167392	0.066068
C	0.5000443493446777 0.6971539440996610 0.4998112687254110	0.173980
C	0.5000645439491981 0.7535454130640622 0.4998339693218824	-0.114166
C	0.5000124006242905 0.8020212930159661 0.4999377309783554	-0.096719
C	0.4999984273327318 0.8583962550475303 0.4999894976875051	0.124629
C	0.5000001370796571 0.9707470800798131 0.4999727376832609	0.066064
C	-0.0000443493446779 0.1971539820996570 -0.0001887312745888	0.173980
C	-0.0000645439491981 0.2535453940640645 -0.0001660306781176	-0.114171
C	-0.0000124006242908 0.3020213120159643 -0.0000622690216446	-0.096707
C	0.0000015726672683 0.3583962940475295 -0.0000105023124948	0.124565
C	-0.0000001370796570 0.4707470410798135 -0.0000272623167392	0.066068
C	0.6971539440996610 0.4999556506553220 0.4998112687254110	0.173980
C	0.7535454130640622 0.4999354560508021 0.4998339693218824	-0.114171
C	0.8020212930159661 0.4999875993757095 0.4999377309783554	-0.096707
C	0.8583962550475303 0.5000015726672684 0.4999894976875051	0.124565
C	0.9707470800798131 0.4999998629203428 0.4999727376832609	0.066068
C	0.1971539820996570 0.0000443493446779 -0.0001887312745888	0.173980
C	0.2535453940640645 0.0000645439491981 -0.0001660306781176	-0.114171
C	0.3020213120159643 0.0000124006242908 -0.0000622690216446	-0.096707
C	0.3583962940475295 -0.0000015726672683 -0.0000105023124948	0.124565
C	0.4707470410798135 0.0000001370796570 -0.0000272623167392	0.066068
C	0.3028459979003414 0.5000443493446777 0.4998112687254110	0.173980
C	0.2464546059359357 0.5000645439491981 0.4998339693218824	-0.114166
C	0.1979786679840339 0.5000124006242905 0.4999377309783554	-0.096719
C	0.1416037059524705 0.4999984273327318 0.4999894976875051	0.124629
C	0.0292529629201869 0.5000001370796571 0.4999727376832609	0.066064
C	0.8028460179003429 -0.0000443493446779 -0.0001887312745888	0.173980
C	0.7464546249359338 -0.0000645439491981 -0.0001660306781176	-0.114171
C	0.6979786679840342 -0.0000124006242908 -0.0000622690216446	-0.096707
C	0.6416037059524701 0.0000015726672683 -0.0000105023124948	0.124565
C	0.5292529589201865 -0.0000001370796570 -0.0000272623167392	0.066069
H	0.4610921073192080 0.4106465385705541 0.2600454194205858	0.107269
H	0.4583270880779492 0.3114205379648433 0.2517479334597885	0.124648
H	0.9201332884785821 0.6347133090690067 0.8977082127554807	0.111252
H	0.9203349983878076 0.5363918843875505 0.8962256325784347	0.105713
H	0.5389078926807921 0.5893534994294420 0.2600454194205858	0.107269
H	0.5416729499220471 0.6885794810351621 0.2517479334597885	0.124648
H	0.0798667115214175 0.3652867289309895 0.8977082127554807	0.111252
H	0.0796649826121942 0.4636081156124494 0.8962256325784347	0.105713
H	0.5893534994294420 0.4610921073192080 0.2600454194205858	0.107269
H	0.6885794810351621 0.4583270880779492 0.2517479334597885	0.124648
H	0.3652867289309895 0.9201332884785821 0.8977082127554807	0.111252
H	0.4636081156124494 0.9203349983878076 0.8962256325784347	0.105713
H	0.4106465385705541 0.5389078926807921 0.2600454194205858	0.107269
H	0.3114205379648433 0.5416729499220471 0.2517479334597885	0.124648
H	0.6347133090690067 0.0798667115214175 0.8977082127554807	0.111252
H	0.5363918843875505 0.0796649826121942 0.8962256325784347	0.105713
H	0.5395090642542087 0.4103181675555203 0.7390564707151538	0.101599
H	0.5416520705945901 0.3113129610075178 0.7479685495672931	0.125097
H	0.0798663833956735 0.6347126639235059 0.1022490912508060	0.111218
H	0.0796665330952519 0.5363912912243338 0.1037213319356740	0.105700
H	0.4604909357457917 0.5896818704444756 0.7390564707151538	0.101599
H	0.4583479674054057 0.6886870579924870 0.7479685495672931	0.125097
H	0.9201336166043265 0.3652873740764900 0.1022490912508060	0.111218
H	0.9203334479047501 0.4636087087756661 0.1037213319356740	0.105699
H	0.4103181675555203 0.4604909357457917 0.7390564707151538	0.101599
H	0.3113129610075178 0.4583479674054057 0.7479685495672931	0.125097
H	0.6347126639235059 0.9201336166043265 0.1022490912508060	0.111218
H	0.5363912912243338 0.9203334479047501 0.1037213319356740	0.105700
H	0.5896818704444756 0.5395090642542087 0.7390564707151538	0.101599
H	0.6886870579924870 0.5416520705945901 0.7479685495672931	0.125097
H	0.3652873740764900 0.0798663833956735 0.1022490912508060	0.111218
H	0.4636087087756661 0.0796665330952519 0.1037213319356740	0.105699
H	0.5798663453956775 0.8652873360764941 0.6022491152508079	0.111218
H	0.5796665140952538 0.9636086707756701 0.6037213479356754	0.105699
H	0.0395090662542086 0.0896818324444797 0.2390564707151537	0.101599
H	0.0416520325945942 0.1886870389924822 0.2479685495672933	0.125097
H	0.4201336166043265 0.1347126349235071 0.6022491152508079	0.111218
H	0.4203334859047461 0.0363913082243319 0.6037213479356754	0.105699
H	0.9604909737457944 0.9103181675555204 0.2390564707151537	0.101598
H	0.9583479674054060 0.8113129800075162 0.2479685495672933	0.125097
H	0.1347126349235071 0.5798663453956775 0.6022491152508079	0.111218
H	0.0363913082243319 0.5796665140952538 0.6037213479356754	0.105699
H	0.9103181675555204 0.0395090662542086 0.2390564707151537	0.101599
H	0.8113129800075162 0.0416520325945942 0.2479685495672933	0.125097
H	0.8652873360764941 0.4201336166043265 0.6022491152508079	0.111218
H	0.9636086707756701 0.4203334859047461 0.6037213479356754	0.105699
H	0.0896818324444797 0.9604909737457944 0.2390564707151537	0.101599
H	0.1886870389924822 0.9583479674054060 0.2479685495672933	0.125097
H	0.4201332884785826 0.8652866909309933 0.3977081807554781	0.111242
H	0.4203350363878037 0.9636080776124535 0.3962256965784328	0.105706
H	0.9610921453192111 0.0893534614294461 0.7600454354205874	0.107269
H	0.9583270880779490 0.1885794620351567 0.7517479014597932	0.124647
H	0.5798666735214218 0.1347132800690075 0.3977081807554781	0.111252
H	0.5796649636121963 0.0363919013875485 0.3962256965784328	0.105713
H	0.0389078946807922 0.9106465385705540 0.7600454354205874	0.107269
H	0.0416729119220510 0.8114205569648411 0.7517479014597932	0.124647
H	0.8652866909309933 0.5798666735214218 0.3977081807554781	0.111252
H	0.9636080776124535 0.5796649636121963 0.3962256965784328	0.105713
H	0.0893534614294461 0.0389078946807922 0.7600454354205874	0.107269
H	0.1885794620351567 0.0416729119220510 0.7517479014597932	0.124647
H	0.1347132800690075 0.4201332884785826 0.3977081807554781	0.111242
H	0.0363919013875485 0.4203350363878037 0.3962256965784328	0.105706
H	0.9106465385705540 0.9610921453192111 0.7600454354205874	0.107269
H	0.8114205569648411 0.9583270880779490 0.7517479014597932	0.124647
Zn	0.5000000000000000 0.5000000000000000 0.5019268696459052	0.777876
Zn	-0.0000000000000000 -0.0000000000000000 0.0019268696459056	0.777876
V	0.5000000000000000 0.5000000000000000 -0.0181629105259453	2.264124
V	-0.0000000000000000 -0.0000000000000000 0.4818370894740547	2.264124
F	0.5000000000000000 0.5000000000000000 0.2404583343595965	-0.608516
F	-0.0000000000000000 -0.0000000000000000 0.7404582863595925	-0.608516
F	0.5524240876383090 0.5515707030031570 0.0056756407019914	-0.580665
F	0.0515706750031622 0.0524240596383137 0.5056756407019913	-0.580665
F	0.4475759503616871 0.4484293349968386 0.0056756407019914	-0.580665
F	0.9484292969968430 0.9475759123616910 0.5056756407019913	-0.580665
F	0.4484293349968386 0.5524240876383090 0.0056756407019914	-0.580665
F	0.9475759123616910 0.0515706750031622 0.5056756407019913	-0.580665
F	0.5515707030031570 0.4475759503616871 0.0056756407019914	-0.580665
F	0.0524240596383137 0.9484292969968430 0.5056756407019913	-0.580665
O	0.5000000000000000 0.5000000000000000 0.7655371770704512	-0.825277
O	-0.0000000000000000 -0.0000000000000000 0.2655371450704488	-0.825277
N	0.5001772130318549 0.4140764616887818 0.4997689417901009	-0.221407
N	-0.0001772130318549 0.9140764996887851 -0.0002310582098991	-0.221407
N	0.4998227869681451 0.5859235383112180 0.4997689417901009	-0.221407
N	0.0001772130318549 0.0859235103112157 -0.0002310582098991	-0.221407
N	0.5859235383112180 0.5001772130318549 0.4997689417901009	-0.221407
N	0.0859235103112157 -0.0001772130318549 -0.0002310582098991	-0.221407
N	0.4140764616887818 0.4998227869681451 0.4997689417901009	-0.221407
N	0.9140764996887851 0.0001772130318549 -0.0002310582098991	-0.221407
	  	
