#======================================================================

# CRYSTAL DATA

#----------------------------------------------------------------------

data_VESTA_phase_1


_pd_phase_name                         VOFFIVE_15_Cu_i
_cell_length_a                         29.60042
_cell_length_b                         28.69185
_cell_length_c                         8.09805
_cell_angle_alpha                      90
_cell_angle_beta                       90
_cell_angle_gamma                      90
_symmetry_space_group_name_H-M         P 1
_symmetry_Int_Tables_number            1

loop_
_symmetry_equiv_pos_as_xyz
   x, y, z

loop_
   _atom_site_label
   _atom_site_fract_x
   _atom_site_fract_y
   _atom_site_fract_z
   _atom_site_charge
C	0.9350732379377067 0.1043284828080477 0.8935457799782518	0.104443
C	0.9027364001490392 0.0694050191013595 0.8981596412273612	-0.163482
C	0.7701639121116988 0.9364033979381651 0.9005641679513774	-0.113391
C	0.7356346818949074 0.9038332885508937 0.9003316241145966	-0.115686
C	0.5664596606457803 0.7398076622897406 0.8934094209039174	0.101085
C	0.6003403459183138 0.7731425784329915 0.8978500229768460	-0.166604
C	0.4350731739377013 0.6043284658080498 0.8935457799782518	0.104443
C	0.4027363681490370 0.5694049991013580 0.8981596412273612	-0.163482
C	0.2701639121116989 0.4364033659381628 0.9005641679513774	-0.113391
C	0.2356346818949079 0.4038332885508940 0.9003316241145966	-0.115686
C	0.0664597006457769 0.2398076782897418 0.8934094209039174	0.101084
C	0.1003403379183200 0.2731425614329935 0.8978500229768460	-0.166605
C	0.0649268060622972 0.8956715341919502 0.3935457799782520	0.104444
C	0.0972636318509631 0.9305950008986420 0.3981596412273612	-0.163484
C	0.2298361198882967 0.0635966430618344 0.4005641679513772	-0.113391
C	0.2643653341050933 0.0961667034491054 0.4003316241145966	-0.115685
C	0.4335403073542239 0.2601923377102597 0.3934093899039188	0.101084
C	0.3996596540816865 0.2268574215670088 0.3978500229768459	-0.166604
C	0.5649267620622933 0.3956715011919509 0.3935457799782520	0.104444
C	0.5972635998509608 0.4305949688986397 0.3981596412273612	-0.163483
C	0.7298360878883012 0.5635966020618349 0.4005641679513772	-0.113391
C	0.7643653181050926 0.5961667114491063 0.4003316241145966	-0.115685
C	0.9335403393542197 0.7601923377102594 0.3934093899039188	0.101084
C	0.8996596540816862 0.7268574215670085 0.3978500229768459	-0.166604
C	0.0645177505436819 0.1047553440783566 0.6061834176598293	0.104884
C	0.0968999762914653 0.0698085564940944 0.5999255139308471	-0.162263
C	0.2298438437533198 0.9363977091707725 0.5992453065720800	-0.113939
C	0.2643596870706342 0.9038376640117886 0.5994799015813197	-0.115457
C	0.4339343097366055 0.7393833920106953 0.6063619399841897	0.100624
C	0.4000307893604421 0.7727654867018782 0.6003926241299284	-0.165207
C	0.5645177065436779 0.6047553270783586 0.6061834176598293	0.104884
C	0.5968999442914630 0.5698085364940934 0.5999255139308471	-0.162263
C	0.7298438117533244 0.4363976771707698 0.5992453065720800	-0.113939
C	0.7643596710706330 0.4038376640117888 0.5994799015813197	-0.115457
C	0.9339343417366007 0.2393834080106969 0.6063619399841897	0.100624
C	0.9000307893604420 0.2727654697018804 0.6003926241299284	-0.165207
C	0.9354822934563221 0.8952446729216414 0.1061834416598241	0.104887
C	0.9031000557085370 0.9301914635059066 0.0999254899308522	-0.162297
C	0.7701561882466756 0.0636023318292274 0.0992453455720798	-0.113939
C	0.7356403289293670 0.0961623279882105 0.0994799245813178	-0.115457
C	0.5660656582633993 0.2606166079893045 0.1063619319841894	0.100623
C	0.5999692106395580 0.2272345132981217 0.1003926401299300	-0.165207
C	0.4354822294563166 0.3952446399216419 0.1061834416598241	0.104887
C	0.4031000237085349 0.4301914315059046 0.0999254899308522	-0.162297
C	0.2701561882466756 0.5636022908292275 0.0992453455720798	-0.113939
C	0.2356403289293670 0.5961623359882114 0.0994799245813178	-0.115457
C	0.0660656982633953 0.7606166079893047 0.1063619319841894	0.100623
C	0.0999692026395643 0.7272345132981218 0.1003926401299300	-0.165207
C	0.0645177505436819 0.8952446729216414 0.1061834416598241	0.104887
C	0.0968999762914653 0.9301914635059066 0.0999254899308522	-0.162297
C	0.2298438437533198 0.0636023318292274 0.0992453455720798	-0.113939
C	0.2643596870706342 0.0961623279882105 0.0994799245813178	-0.115458
C	0.4339343097366055 0.2606166079893045 0.1063619319841894	0.100623
C	0.4000307893604421 0.2272345132981217 0.1003926401299300	-0.165208
C	0.5645177065436779 0.3952446399216419 0.1061834416598241	0.104887
C	0.5968999442914630 0.4301914315059046 0.0999254899308522	-0.162296
C	0.7298438117533244 0.5636022908292275 0.0992453455720798	-0.113939
C	0.7643596710706330 0.5961623359882114 0.0994799245813178	-0.115457
C	0.9339343417366007 0.7606166079893047 0.1063619319841894	0.100623
C	0.9000307893604420 0.7272345132981218 0.1003926401299300	-0.165208
C	0.9354822934563221 0.1047553440783566 0.6061834176598293	0.104884
C	0.9031000557085370 0.0698085564940944 0.5999255139308471	-0.162263
C	0.7701561882466756 0.9363977091707725 0.5992453065720800	-0.113939
C	0.7356403289293670 0.9038376640117886 0.5994799015813197	-0.115457
C	0.5660656582633993 0.7393833920106953 0.6063619399841897	0.100624
C	0.5999692106395580 0.7727654867018782 0.6003926241299284	-0.165208
C	0.4354822294563166 0.6047553270783586 0.6061834176598293	0.104883
C	0.4031000237085349 0.5698085364940934 0.5999255139308471	-0.162263
C	0.2701561882466756 0.4363976771707698 0.5992453065720800	-0.113939
C	0.2356403289293670 0.4038376640117888 0.5994799015813197	-0.115457
C	0.0660656982633953 0.2393834080106969 0.6063619399841897	0.100623
C	0.0999692026395643 0.2727654697018804 0.6003926241299284	-0.165208
C	0.9350732379377067 0.8956715341919502 0.3935457799782520	0.104443
C	0.9027364001490392 0.9305950008986420 0.3981596412273612	-0.163484
C	0.7701639121116988 0.0635966430618344 0.4005641679513772	-0.113391
C	0.7356346818949074 0.0961667034491054 0.4003316241145966	-0.115686
C	0.5664596606457803 0.2601923377102597 0.3934093899039188	0.101084
C	0.6003403459183138 0.2268574215670088 0.3978500229768459	-0.166605
C	0.4350731739377013 0.3956715011919509 0.3935457799782520	0.104443
C	0.4027363681490370 0.4305949688986397 0.3981596412273612	-0.163484
C	0.2701639121116989 0.5635966020618349 0.4005641679513772	-0.113391
C	0.2356346818949079 0.5961667114491063 0.4003316241145966	-0.115685
C	0.0664597006457769 0.7601923377102594 0.3934093899039188	0.101084
C	0.1003403379183200 0.7268574215670085 0.3978500229768459	-0.166605
C	0.0649268060622972 0.1043284828080477 0.8935457799782518	0.104443
C	0.0972636318509631 0.0694050191013595 0.8981596412273612	-0.163482
C	0.2298361198882967 0.9364033979381651 0.9005641679513774	-0.113390
C	0.2643653341050933 0.9038332885508937 0.9003316241145966	-0.115686
C	0.4335403073542239 0.7398076622897406 0.8934094209039174	0.101084
C	0.3996596540816865 0.7731425784329915 0.8978500229768459	-0.166605
C	0.5649267620622933 0.6043284658080498 0.8935457799782518	0.104443
C	0.5972635998509608 0.5694049991013580 0.8981596412273612	-0.163482
C	0.7298360878883012 0.4364033659381628 0.9005641679513774	-0.113390
C	0.7643653181050926 0.4038332885508940 0.9003316241145966	-0.115686
C	0.9335403393542197 0.2398076782897418 0.8934094209039174	0.101084
C	0.8996596540816862 0.2731425614329935 0.8978500229768460	-0.166605
C	0.6525803723860286 0.8245314263917819 0.7482519456454422	-0.103828
C	0.8859029063385687 0.0514083909813430 0.7484768053273385	0.161793
C	0.8227308543121838 0.9867941711420016 0.7494546124098085	-0.098304
C	0.6179966350258649 0.7905865201182207 0.7485426988338402	0.168141
C	0.7878924290783834 0.9531972541201917 0.7498890148552473	0.125128
C	0.7177559787761191 0.8869996339398928 0.7498939569146340	0.138488
C	0.6826723255932186 0.8536358665904392 0.7494712499394828	-0.099406
C	0.8523706283997805 0.0163932008539536 0.7481785987438130	-0.104928
C	0.1525803243860313 0.3245314593917819 0.7482519456454422	-0.103828
C	0.3859028743385660 0.5514083659813445 0.7484768053273385	0.161793
C	0.3227308863121869 0.4867942041420076 0.7494546124098085	-0.098303
C	0.1179966110258630 0.2905865201182209 0.7485426988338402	0.168141
C	0.2878924610783790 0.4531972541201913 0.7498890148552473	0.125128
C	0.2177559467761167 0.3869996669398923 0.7498939569146340	0.138488
C	0.1826723415932193 0.3536358665904387 0.7494712499394828	-0.099406
C	0.3523706603997765 0.5163932368539568 0.7481785987438130	-0.104929
C	0.3474196916139702 0.1754685566082124 0.2482519296454411	-0.103827
C	0.1140971096614327 0.9485916340186555 0.2484767893273370	0.161783
C	0.1772691456878160 0.0132058098579934 0.2494545964098071	-0.098302
C	0.3820033969741375 0.2094134798817794 0.2485426828338389	0.168140
C	0.2121075549216224 0.0468027288798037 0.2498889988552455	0.125128
C	0.2822440532238831 0.1130003490601091 0.2498939409146326	0.138489
C	0.3173276744067820 0.1463641334095611 0.2494712339394817	-0.099406
C	0.1476293556002178 0.9836067631460432 0.2481785827438123	-0.104928
C	0.8474196276139714 0.6754685736082181 0.2482519296454411	-0.103827
C	0.6140970936614313 0.4485916340186555 0.2484767893273370	0.161783
C	0.6772691456878162 0.5132058288579984 0.2494545964098071	-0.098303
C	0.8820033649741351 0.7094134798817793 0.2485426828338389	0.168140
C	0.7121075709216166 0.5468027458798083 0.2498889988552455	0.125128
C	0.7822440212238809 0.6130003660601072 0.2498939409146326	0.138489
C	0.8173276744067814 0.6463641334095608 0.2494712339394817	-0.099406
C	0.6476293716002195 0.4836067961460425 0.2481785827438123	-0.104928
C	0.3474196916139702 0.8245314263917819 0.7482519456454422	-0.103828
C	0.1140971096614327 0.0514083909813430 0.7484768053273385	0.161793
C	0.1772691456878160 0.9867941711420016 0.7494546124098085	-0.098304
C	0.3820033969741375 0.7905865201182207 0.7485426988338402	0.168141
C	0.2121075549216224 0.9531972541201917 0.7498890148552473	0.125128
C	0.2822440532238831 0.8869996339398928 0.7498939569146340	0.138488
C	0.3173276744067820 0.8536358665904392 0.7494712499394828	-0.099406
C	0.1476293556002178 0.0163932008539536 0.7481785987438130	-0.104928
C	0.8474196276139714 0.3245314593917819 0.7482519456454422	-0.103828
C	0.6140970936614313 0.5514083659813445 0.7484768053273385	0.161793
C	0.6772691456878162 0.4867942041420076 0.7494546124098085	-0.098303
C	0.8820033649741351 0.2905865201182209 0.7485426988338402	0.168141
C	0.7121075709216166 0.4531972541201913 0.7498890148552473	0.125128
C	0.7822440212238809 0.3869996669398923 0.7498939569146340	0.138488
C	0.8173276744067814 0.3536358665904387 0.7494712499394828	-0.099406
C	0.6476293716002195 0.5163932368539568 0.7481785987438130	-0.104929
C	0.6525803723860286 0.1754685566082124 0.2482519296454411	-0.103827
C	0.8859029063385687 0.9485916340186555 0.2484767893273370	0.161783
C	0.8227308543121838 0.0132058098579934 0.2494545964098071	-0.098302
C	0.6179966350258649 0.2094134798817794 0.2485426828338389	0.168140
C	0.7878924290783834 0.0468027288798037 0.2498889988552455	0.125128
C	0.7177559787761191 0.1130003490601091 0.2498939409146326	0.138489
C	0.6826723255932186 0.1463641334095611 0.2494712339394817	-0.099406
C	0.8523706283997805 0.9836067631460432 0.2481785827438123	-0.104928
C	0.1525803243860313 0.6754685736082181 0.2482519296454411	-0.103827
C	0.3859028743385660 0.4485916340186555 0.2484767893273370	0.161783
C	0.3227308863121869 0.5132058288579984 0.2494545964098071	-0.098302
C	0.1179966110258630 0.7094134798817793 0.2485426828338389	0.168140
C	0.2878924610783790 0.5468027458798083 0.2498889988552455	0.125128
C	0.2177559467761167 0.6130003660601072 0.2498939409146326	0.138488
C	0.1826723415932193 0.6463641334095608 0.2494712339394817	-0.099406
C	0.3523706603997765 0.4836067961460425 0.2481785827438123	-0.104928
H	0.9487750925254766 0.1191236051230737 0.0066379091840059	0.100309
H	0.8906969176223178 0.0563227596799919 0.0165126195438847	0.122562
H	0.7840123303359418 0.9493750254100942 0.0164883118541813	0.105686
H	0.7219174549795990 0.8908067549726840 0.0162405268282035	0.115355
H	0.5521892354666458 0.7256668636687220 0.0066065561677117	0.099525
H	0.6129853306739782 0.7854063172313213 0.0163047206748534	0.127145
H	0.4487751575254715 0.6191235801230757 0.0066379091840059	0.100309
H	0.3906969176223178 0.5563227266799922 0.0165126195438847	0.122562
H	0.2840122983359465 0.4493750584100933 0.0164883118541813	0.105686
H	0.2219174549795987 0.3908067219726848 0.0162405268282035	0.115355
H	0.0521891874666491 0.2256668796687238 0.0066065561677117	0.099525
H	0.1129853786739817 0.2854062512313229 0.0163047206748534	0.127145
H	0.0512248594745265 0.8808764198769243 0.5066378941840085	0.100309
H	0.1093030823776822 0.9436772733200078 0.5165126195438848	0.122563
H	0.2159877016640535 0.0506249455899072 0.5164883118541811	0.105686
H	0.2780825450204015 0.1091932860273161 0.5162404958281979	0.115355
H	0.4478108295333486 0.2743331203312763 0.5066065641677123	0.099525
H	0.3870146053260241 0.2145937317686790 0.5163047476748589	0.127144
H	0.5512249074745234 0.3808764198769249 0.5066378941840085	0.100309
H	0.6093030823776822 0.4436772403200081 0.5165126195438848	0.122563
H	0.7159876696640582 0.5506249415899066 0.5164883118541811	0.105686
H	0.7780825450204010 0.6091932450273160 0.5162404958281979	0.115355
H	0.9478107645333542 0.7743331363312780 0.5066065641677123	0.099525
H	0.8870146693260218 0.7145936827686787 0.5163047476748589	0.127144
H	0.0504033940974187 0.1199465415703686 0.4942892717730984	0.109326
H	0.1086878209304218 0.0570077474643935 0.4808705201340299	0.122600
H	0.2159872580915430 0.9493822953836877 0.4833584551263693	0.105884
H	0.2780893930402041 0.8908001872933234 0.4836186297469182	0.115191
H	0.4485754826341418 0.7248185997080198 0.4943328598322256	0.108926
H	0.3876500803616174 0.7847694695263043 0.4812314441617767	0.127002
H	0.5504034420974155 0.6199465165703701 0.4942892717730984	0.109326
H	0.6086878209304220 0.5570077144643946 0.4808705201340299	0.122600
H	0.7159872260915475 0.4493823283836871 0.4833584551263693	0.105884
H	0.7780893930402043 0.3908001542933247 0.4836186297469182	0.115191
H	0.9485754176341470 0.2248186157080211 0.4943328598322256	0.108926
H	0.8876501443616155 0.2847694035263059 0.4812314441617767	0.127002
H	0.9495965579025845 0.8800534834296299 0.9942892407730998	0.109326
H	0.8913121790695780 0.9429922855356054 0.9808704891340311	0.122641
H	0.7840127739084525 0.0506176756163134 0.9833584231263667	0.105884
H	0.7219106069597957 0.1091998537066760 0.9836186297469179	0.115192
H	0.5514245823658530 0.2751813842919790 0.9943328598322257	0.108926
H	0.6123498556383845 0.2152305794736962 0.9812314441617765	0.127001
H	0.4495966229025791 0.3800534834296298 0.9942892407730998	0.109326
H	0.3913121790695782 0.4429922525356064 0.9808704891340311	0.122641
H	0.2840127419084570 0.5506176716163131 0.9833584231263667	0.105884
H	0.2219106069597958 0.6091998127066766 0.9836186297469179	0.115192
H	0.0514245343658561 0.7751814002919802 0.9943328598322257	0.108926
H	0.1123499036383886 0.7152305304736957 0.9812314441617765	0.127001
H	0.0504033940974187 0.8800534834296299 0.9942892407730998	0.109326
H	0.1086878209304218 0.9429922855356054 0.9808704891340311	0.122641
H	0.2159872580915430 0.0506176756163134 0.9833584231263667	0.105884
H	0.2780893930402041 0.1091998537066760 0.9836186297469178	0.115194
H	0.4485754826341418 0.2751813842919790 0.9943328598322257	0.108927
H	0.3876500803616174 0.2152305794736962 0.9812314441617765	0.127002
H	0.5504034420974155 0.3800534834296298 0.9942892407730998	0.109326
H	0.6086878209304220 0.4429922525356064 0.9808704891340311	0.122641
H	0.7159872260915475 0.5506176716163131 0.9833584231263667	0.105884
H	0.7780893930402043 0.6091998127066766 0.9836186297469179	0.115194
H	0.9485754176341470 0.7751814002919802 0.9943328598322257	0.108926
H	0.8876501443616155 0.7152305304736957 0.9812314441617765	0.127002
H	0.9495965579025845 0.1199465415703686 0.4942892717730984	0.109326
H	0.8913121790695780 0.0570077474643935 0.4808705201340299	0.122600
H	0.7840127739084525 0.9493822953836877 0.4833584551263693	0.105884
H	0.7219106069597957 0.8908001872933234 0.4836186297469181	0.115193
H	0.5514245823658530 0.7248185997080198 0.4943328598322256	0.108926
H	0.6123498556383845 0.7847694695263043 0.4812314441617767	0.127003
H	0.4495966229025791 0.6199465165703701 0.4942892717730984	0.109326
H	0.3913121790695782 0.5570077144643946 0.4808705201340299	0.122600
H	0.2840127419084570 0.4493823283836871 0.4833584551263693	0.105884
H	0.2219106069597958 0.3908001542933247 0.4836186297469182	0.115193
H	0.0514245343658561 0.2248186157080211 0.4943328598322256	0.108926
H	0.1123499036383886 0.2847694035263059 0.4812314441617767	0.127003
H	0.9487750925254766 0.8808764198769243 0.5066378941840085	0.100309
H	0.8906969176223178 0.9436772733200078 0.5165126195438848	0.122563
H	0.7840123303359418 0.0506249455899072 0.5164883118541811	0.105686
H	0.7219174549795990 0.1091932860273161 0.5162404958281979	0.115357
H	0.5521892354666458 0.2743331203312763 0.5066065641677123	0.099525
H	0.6129853306739782 0.2145937317686790 0.5163047476748589	0.127146
H	0.4487751575254715 0.3808764198769249 0.5066378941840085	0.100309
H	0.3906969176223178 0.4436772403200081 0.5165126195438848	0.122563
H	0.2840122983359465 0.5506249415899066 0.5164883118541811	0.105686
H	0.2219174549795987 0.6091932450273160 0.5162404958281979	0.115357
H	0.0521891874666491 0.7743331363312780 0.5066065641677123	0.099525
H	0.1129853786739817 0.7145936827686787 0.5163047476748589	0.127146
H	0.0512248594745265 0.1191236051230737 0.0066379091840059	0.100309
H	0.1093030823776822 0.0563227596799919 0.0165126195438847	0.122562
H	0.2159877016640535 0.9493750254100942 0.0164883118541813	0.105687
H	0.2780825450204015 0.8908067549726840 0.0162405268282035	0.115357
H	0.4478108295333486 0.7256668636687220 0.0066065561677117	0.099525
H	0.3870146053260241 0.7854063172313213 0.0163047206748534	0.127147
H	0.5512249074745234 0.6191235801230757 0.0066379091840059	0.100309
H	0.6093030823776822 0.5563227266799922 0.0165126195438847	0.122562
H	0.7159876696640582 0.4493750584100933 0.0164883118541813	0.105687
H	0.7780825450204010 0.3908067219726848 0.0162405268282035	0.115357
H	0.9478107645333542 0.2256668796687238 0.0066065561677117	0.099525
H	0.8870146693260218 0.2854062512313229 0.0163047206748534	0.127147
Cu	0.5000000000000000 0.6728413692443348 0.7511353917367621	0.727863
Cu	-0.0000000000000000 0.1728413362443358 0.7511353917367621	0.727863
Cu	0.5000000000000000 0.3271586637556642 0.2511353757367614	0.727864
Cu	-0.0000000000000000 0.8271586307556652 0.2511353757367614	0.727864
V	0.5000000000000000 0.6728496810183342 0.2342244105262552	2.247292
V	-0.0000000000000000 0.1728497300183351 0.2342244105262552	2.247292
V	0.5000000000000000 0.3271502539816705 0.7342244265262566	2.247282
V	-0.0000000000000000 0.8271503189816658 0.7342244265262566	2.247282
F	0.5000000000000000 0.7372411423421328 0.2583498849639154	-0.583190
F	0.5000000000000000 0.6084349238085995 0.2579705592800601	-0.579995
F	-0.0000000000000000 0.2372411093421335 0.2583498849639154	-0.583191
F	-0.0000000000000000 0.1084349318085998 0.2579705592800601	-0.579995
F	0.5000000000000000 0.2627588746578652 0.7583499009639164	-0.583196
F	0.5000000000000000 0.3915650431914016 0.7579705752800612	-0.579991
F	-0.0000000000000000 0.7627588576578672 0.7583499009639164	-0.583195
F	-0.0000000000000000 0.8915650761914005 0.7579705752800612	-0.579991
F	0.5624852438827428 0.6727816056656668 0.2576987688960187	-0.583510
F	0.0624852358827423 0.1727815886656688 0.2576987688960187	-0.583510
F	0.4375147561172570 0.3272183943343334 0.7576987848960206	-0.583508
F	0.9375147561172572 0.8272183943343332 0.7576987848960206	-0.583508
F	0.4375147561172570 0.6727816056656668 0.2576987688960187	-0.583510
F	0.9375147561172572 0.1727815886656688 0.2576987688960187	-0.583510
F	0.5624852438827428 0.3272183943343334 0.7576987848960206	-0.583508
F	0.0624852358827423 0.8272183943343332 0.7576987848960206	-0.583508
F	0.5000000000000000 0.6728490936233165 0.4827032077177036	-0.640431
F	-0.0000000000000000 0.1728490936233168 0.4827032077177036	-0.640431
F	0.5000000000000000 0.3271509063766833 -0.0172967302822984	-0.640430
F	-0.0000000000000000 0.8271509063766835 -0.0172967302822984	-0.640430
O	0.5000000000000000 0.6729151074487375 0.0298815130973510	-0.828954
O	-0.0000000000000000 0.1729151074487372 0.0298815130973510	-0.828954
O	0.5000000000000000 0.3270848925512628 0.5298814940973531	-0.828949
O	-0.0000000000000000 0.8270848925512625 0.5298814940973531	-0.828949
N	0.5495098168210605 0.7231510455436621 0.7505419451222524	-0.214482
N	0.9511795962127141 0.1217598142045192 0.7505268436133031	-0.214905
N	0.0495098568210568 0.2231510615436633 0.7505419451222524	-0.214482
N	0.4511795642127184 0.6217597902045168 0.7505268436133031	-0.214904
N	0.4504901511789440 0.2768489384563369 0.2505419291222513	-0.214480
N	0.0488204317872814 0.8782402097954832 0.2505268276133018	-0.214907
N	0.9504901831789395 0.7768489544563379 0.2505419291222513	-0.214480
N	0.5488204037872859 0.3782401767954836 0.2505268276133018	-0.214907
N	0.4504901511789440 0.7231510455436621 0.7505419451222524	-0.214482
N	0.0488204317872814 0.1217598142045192 0.7505268436133031	-0.214904
N	0.9504901831789395 0.2231510615436633 0.7505419451222524	-0.214482
N	0.5488204037872859 0.6217597902045168 0.7505268436133031	-0.214904
N	0.5495098168210605 0.2768489384563369 0.2505419291222513	-0.214480
N	0.9511795962127141 0.8782402097954832 0.2505268276133018	-0.214907
N	0.0495098568210568 0.7768489544563379 0.2505419291222513	-0.214480
N	0.4511795642127184 0.3782401767954836 0.2505268276133018	-0.214907
	  	
