#======================================================================

# CRYSTAL DATA

#----------------------------------------------------------------------

data_VESTA_phase_1


_pd_phase_name                         VOFFIVE_16_Ni_i
_cell_length_a                         25.05771
_cell_length_b                         25.05771
_cell_length_c                         7.56251
_cell_angle_alpha                      90
_cell_angle_beta                       90
_cell_angle_gamma                      90
_symmetry_space_group_name_H-M         P 1
_symmetry_Int_Tables_number            1

loop_
_symmetry_equiv_pos_as_xyz
   x, y, z

loop_
   _atom_site_label
   _atom_site_fract_x
   _atom_site_fract_y
   _atom_site_fract_z
   _atom_site_charge
C	0.4776779143428680 0.3886966672874047 0.3661741583652215	0.101104
C	0.4765645864880149 0.3332383706409407 0.3610312147442073	-0.173144
C	0.9546911475423081 0.6133426167669499 0.9430441276728171	-0.127365
C	0.9548684215486235 0.5579413494338744 0.9438927716898822	-0.123019
C	0.5223221236571350 0.6113033327125955 0.3661741583652215	0.101106
C	0.5234353755119892 0.6667615913590632 0.3610312147442073	-0.173145
C	0.0453088474576878 0.3866573832330505 0.9430441276728171	-0.127365
C	0.0451315834513736 0.4420586505661257 0.9438927716898822	-0.123019
C	0.6113033327125955 0.4776779143428680 0.3661741583652215	0.101106
C	0.6667615913590632 0.4765645864880149 0.3610312147442073	-0.173145
C	0.3866573832330505 0.9546911475423081 0.9430441276728171	-0.127365
C	0.4420586505661257 0.9548684215486235 0.9438927716898822	-0.123019
C	0.3886966672874047 0.5223221236571350 0.3661741583652215	0.101104
C	0.3332383706409407 0.5234353755119892 0.3610312147442073	-0.173144
C	0.6133426167669499 0.0453088474576878 0.9430441276728171	-0.127365
C	0.5579413494338744 0.0451315834513736 0.9438927716898822	-0.123019
C	0.5227237529916512 0.3883879106759908 0.6337521431073961	0.100365
C	0.5235090882104655 0.3329929564677654 0.6386894008771945	-0.173291
C	0.0453067549283005 0.6133409263796096 0.0569982868569895	-0.127391
C	0.0451313537246497 0.5579398736828473 0.0561351758304623	-0.123017
C	0.4772762850083514 0.6116120893240091 0.6337521431073961	0.100411
C	0.4764908737895385 0.6670070055322386 0.6386894008771945	-0.173300
C	0.9546932400716955 0.3866590736203902 0.0569982868569895	-0.127391
C	0.9548686512753473 0.4420601263171526 0.0561351758304623	-0.123016
C	0.3883879106759908 0.4772762850083514 0.6337521431073961	0.100365
C	0.3329929564677654 0.4764908737895385 0.6386894008771945	-0.173291
C	0.6133409263796096 0.9546932400716955 0.0569982868569895	-0.127391
C	0.5579398736828473 0.9548686512753473 0.0561351758304623	-0.123016
C	0.6116120893240091 0.5227237529916512 0.6337521431073961	0.100412
C	0.6670070055322386 0.5235090882104655 0.6386894008771945	-0.173300
C	0.3866590736203902 0.0453067549283005 0.0569982868569895	-0.127391
C	0.4420601263171526 0.0451313537246497 0.0561351758304623	-0.123017
C	0.5453067599283045 0.8866590736203904 0.5569982948569903	-0.127430
C	0.5451313487246527 0.9420601263171527 0.5561352118304655	-0.123013
C	0.0227237359916538 0.1116120803240121 0.1337521751073915	0.100364
C	0.0235091262104615 0.1670070245322365 0.1386894008771941	-0.173290
C	0.4546932790716952 0.1133409163796088 0.5569982948569903	-0.127389
C	0.4548686512753470 0.0579398636828465 0.5561352118304655	-0.123028
C	0.9772762090083457 0.8883879106759909 0.1337521751073915	0.100365
C	0.9764908737895385 0.8329929564677654 0.1386894008771941	-0.173290
C	0.1133409163796088 0.5453067599283045 0.5569982948569903	-0.127389
C	0.0579398636828465 0.5451313487246527 0.5561352118304655	-0.123028
C	0.8883879106759909 0.0227237359916538 0.1337521751073915	0.100365
C	0.8329929564677654 0.0235091262104615 0.1386894008771941	-0.173290
C	0.8866590736203904 0.4546932790716952 0.5569982948569903	-0.127430
C	0.9420601263171527 0.4548686512753470 0.5561352118304655	-0.123013
C	0.1116120803240121 0.9772762090083457 0.1337521751073915	0.100364
C	0.1670070245322365 0.9764908737895385 0.1386894008771941	-0.173290
C	0.4546911865423079 0.8866573832330501 0.4430441276728169	-0.127415
C	0.4548684215486232 0.9420586505661256 0.4438927716898823	-0.123025
C	0.9776778383428618 0.1113033237125983 0.8661741583652215	0.101104
C	0.9765645864880148 0.1667616103590614 0.8610311827442050	-0.173144
C	0.5453088524576919 0.1133426067669487 0.4430441276728169	-0.127362
C	0.5451315784513765 0.0579413394338735 0.4438927716898823	-0.123032
C	0.0223221066571373 0.8886966672874045 0.8661741583652215	0.101104
C	0.0234354135119852 0.8332383706409408 0.8610311827442050	-0.173144
C	0.8866573832330501 0.5453088524576919 0.4430441276728169	-0.127415
C	0.9420586505661256 0.5451315784513765 0.4438927716898823	-0.123024
C	0.1113033237125983 0.0223221066571373 0.8661741583652215	0.101104
C	0.1667616103590614 0.0234354135119852 0.8610311827442050	-0.173144
C	0.1133426067669487 0.4546911865423079 0.4430441276728169	-0.127362
C	0.0579413394338735 0.4548684215486232 0.4438927716898823	-0.123032
C	0.8886966672874045 0.9776778383428618 0.8661741583652215	0.101104
C	0.8332383706409408 0.9765645864880148 0.8610311827442050	-0.173144
C	0.4999370217451623 0.3039811818931163 0.4998070807669422	0.175472
C	0.4999102919515442 0.2473596446705227 0.4996692352298434	-0.116660
C	0.4999785954143505 0.1986639595333005 0.4998936937847967	-0.096351
C	0.5000003207585567 0.1420304986454934 0.5000065922722218	0.125172
C	0.4999999752890193 0.0293325427068593 0.5000039174147974	0.065723
C	0.0000629782548377 0.8039812018931179 -0.0001929192330577	0.175471
C	0.0000897080484560 0.7473596636705205 -0.0003307647701566	-0.116660
C	0.0000214045856494 0.6986639595333003 -0.0001063062152035	-0.096351
C	-0.0000003207585569 0.6420304986454932 0.0000065922722218	0.125173
C	0.0000000247109806 0.5293325387068588 0.0000039174147974	0.065658
C	0.5000629782548376 0.6960187601068860 0.4998070807669422	0.175479
C	0.5000897080484557 0.7526403743294755 0.4996692352298434	-0.116702
C	0.5000214045856495 0.8013360014667000 0.4998936937847967	-0.096261
C	0.4999996792414432 0.8579694623545071 0.5000065922722218	0.125181
C	0.5000000247109803 0.9706675002931409 0.5000039174147974	0.065624
C	-0.0000629782548377 0.1960187981068820 -0.0001929192330577	0.175472
C	-0.0000897080484560 0.2526403553294771 -0.0003307647701566	-0.116660
C	-0.0000214045856494 0.3013360204666978 -0.0001063062152035	-0.096351
C	0.0000003207585569 0.3579695013545067 0.0000065922722218	0.125173
C	-0.0000000247109806 0.4706674612931410 0.0000039174147974	0.065658
C	0.6960187601068860 0.4999370217451623 0.4998070807669422	0.175479
C	0.7526403743294755 0.4999102919515442 0.4996692352298434	-0.116702
C	0.8013360014667000 0.4999785954143505 0.4998936937847967	-0.096261
C	0.8579694623545071 0.5000003207585567 0.5000065922722218	0.125181
C	0.9706675002931409 0.4999999752890193 0.5000039174147974	0.065624
C	0.1960187981068820 0.0000629782548377 -0.0001929192330577	0.175472
C	0.2526403553294771 0.0000897080484560 -0.0003307647701566	-0.116660
C	0.3013360204666978 0.0000214045856494 -0.0001063062152035	-0.096351
C	0.3579695013545067 -0.0000003207585569 0.0000065922722218	0.125173
C	0.4706674612931410 0.0000000247109806 0.0000039174147974	0.065658
C	0.3039811818931163 0.5000629782548376 0.4998070807669422	0.175472
C	0.2473596446705227 0.5000897080484557 0.4996692352298434	-0.116660
C	0.1986639595333005 0.5000214045856495 0.4998936937847967	-0.096351
C	0.1420304986454934 0.4999996792414432 0.5000065922722218	0.125172
C	0.0293325427068593 0.5000000247109803 0.5000039174147974	0.065723
C	0.8039812018931179 -0.0000629782548377 -0.0001929192330577	0.175471
C	0.7473596636705205 -0.0000897080484560 -0.0003307647701566	-0.116660
C	0.6986639595333003 -0.0000214045856494 -0.0001063062152035	-0.096351
C	0.6420304986454932 0.0000003207585569 0.0000065922722218	0.125173
C	0.5293325387068588 -0.0000000247109806 0.0000039174147974	0.065658
H	0.4606840279217271 0.4123306672351766 0.2588599060091282	0.107018
H	0.4579760179334982 0.3129474516263183 0.2496462947096738	0.124905
H	0.9196776969590945 0.6350632482090675 0.8970108482743554	0.111759
H	0.9200063441424039 0.5362711932837810 0.8959278944229658	0.106039
H	0.5393159720782726 0.5876693707648191 0.2588599060091282	0.107019
H	0.5420240200664980 0.6870525673736874 0.2496462947096738	0.124906
H	0.0803223030409055 0.3649367897909288 0.8970108482743554	0.111758
H	0.0799936368575980 0.4637288067162192 0.8959278944229658	0.106039
H	0.5876693707648191 0.4606840279217271 0.2588599060091282	0.107018
H	0.6870525673736874 0.4579760179334982 0.2496462947096738	0.124906
H	0.3649367897909288 0.9196776969590945 0.8970108482743554	0.111759
H	0.4637288067162192 0.9200063441424039 0.8959278944229658	0.106039
H	0.4123306672351766 0.5393159720782726 0.2588599060091282	0.107018
H	0.3129474516263183 0.5420240200664980 0.2496462947096738	0.124905
H	0.6350632482090675 0.0803223030409055 0.8970108482743554	0.111758
H	0.5362711932837810 0.0799936368575980 0.8959278944229658	0.106039
H	0.5401212339283188 0.4116855343233787 0.7411067857112806	0.101709
H	0.5420638889357157 0.3126287620486516 0.7500460364561519	0.124951
H	0.0803244886044419 0.6350622440203917 0.1030053426540474	0.111744
H	0.0799963525567734 0.5362694354786806 0.1040783172861757	0.106010
H	0.4598787660716815 0.5883145036766172 0.7411067857112806	0.101680
H	0.4579361490642802 0.6873712569513536 0.7500460364561519	0.124953
H	0.9196755113955581 0.3649377939796039 0.1030053426540474	0.111744
H	0.9200036284432285 0.4637305645213193 0.1040783172861757	0.106010
H	0.4116855343233787 0.4598787660716815 0.7411067857112806	0.101709
H	0.3126287620486516 0.4579361490642802 0.7500460364561519	0.124951
H	0.6350622440203917 0.9196755113955581 0.1030053426540474	0.111744
H	0.5362694354786806 0.9200036284432285 0.1040783172861757	0.106010
H	0.5883145036766172 0.5401212339283188 0.7411067857112806	0.101679
H	0.6873712569513536 0.5420638889357157 0.7500460364561519	0.124953
H	0.3649377939796039 0.0803244886044419 0.1030053426540474	0.111744
H	0.4637305645213193 0.0799963525567734 0.1040783172861757	0.106010
H	0.5803244506044458 0.8649377559796083 0.6030053666540489	0.111749
H	0.5799963335567755 0.9637305265213234 0.6040783332861772	0.106011
H	0.0401212359283189 0.0883144656766212 0.2411067857112805	0.101709
H	0.0420638509357198 0.1873712379513483 0.2500460364561515	0.124951
H	0.4196755113955580 0.1350622150203931 0.6030053666540489	0.111742
H	0.4200036664432246 0.0362694524786787 0.6040783332861772	0.106012
H	0.9598788040716844 0.9116855343233788 0.2411067857112805	0.101709
H	0.9579361490642804 0.8126287810486496 0.2500460364561515	0.124951
H	0.1350622150203931 0.5803244506044458 0.6030053666540489	0.111742
H	0.0362694524786787 0.5799963335567755 0.6040783332861772	0.106012
H	0.9116855343233788 0.0401212359283189 0.2411067857112805	0.101709
H	0.8126287810486496 0.0420638509357198 0.2500460364561515	0.124951
H	0.8649377559796083 0.4196755113955580 0.6030053666540489	0.111750
H	0.9637305265213234 0.4200036664432246 0.6040783332861772	0.106011
H	0.0883144656766212 0.9598788040716844 0.2411067857112805	0.101709
H	0.1873712379513483 0.9579361490642804 0.2500460364561515	0.124951
H	0.4196776969590945 0.8649367517909325 0.3970108162743527	0.111764
H	0.4200063821424000 0.9637287687162229 0.3959279584229641	0.106042
H	0.9606840659217305 0.0876693327648233 0.7588599220091294	0.107018
H	0.9579760179334981 0.1870525483736818 0.7496462627096785	0.124904
H	0.5803222650409094 0.1350632192090685 0.3970108162743527	0.111755
H	0.5799936178576001 0.0362712102837787 0.3959279584229641	0.106041
H	0.0393159740782731 0.9123306672351770 0.7588599220091294	0.107018
H	0.0420239820665019 0.8129474706263158 0.7496462627096785	0.124904
H	0.8649367517909325 0.5803222650409094 0.3970108162743527	0.111764
H	0.9637287687162229 0.5799936178576001 0.3959279584229641	0.106042
H	0.0876693327648233 0.0393159740782731 0.7588599220091294	0.107018
H	0.1870525483736818 0.0420239820665019 0.7496462627096785	0.124904
H	0.1350632192090685 0.4196776969590945 0.3970108162743527	0.111755
H	0.0362712102837787 0.4200063821424000 0.3959279584229641	0.106041
H	0.9123306672351770 0.9606840659217305 0.7588599220091294	0.107018
H	0.8129474706263158 0.9579760179334981 0.7496462627096785	0.124904
Ni	0.5000000000000000 0.5000000000000000 0.5016657213127238	0.771919
Ni	-0.0000000000000000 0.0000000000000000 0.0016657213127235	0.771915
V	0.5000000000000000 0.5000000000000000 -0.0197185013919859	2.255828
V	-0.0000000000000000 0.0000000000000000 0.4802814986080142	2.255826
F	0.5000000000000000 0.5000000000000000 0.2432412737522186	-0.617925
F	-0.0000000000000000 0.0000000000000000 0.7432412257522150	-0.617925
F	0.5528207124267339 0.5515995612677114 0.0041824286825031	-0.574798
F	0.0515995332677164 0.0528206844267386 0.5041824286825031	-0.574799
F	0.4471793255732623 0.4484004767322844 0.0041824286825031	-0.574798
F	0.9484004387322887 0.9471792875732661 0.5041824286825031	-0.574799
F	0.4484004767322844 0.5528207124267339 0.0041824286825031	-0.574798
F	0.9471792875732661 0.0515995332677164 0.5041824286825031	-0.574799
F	0.5515995612677113 0.4471793255732623 0.0041824286825031	-0.574798
F	0.0528206844267386 0.9484004387322887 0.5041824286825031	-0.574799
O	0.5000000000000000 0.5000000000000000 0.7620155427961548	-0.829598
O	-0.0000000000000000 0.0000000000000000 0.2620155107961520	-0.829591
N	0.5002398607583010 0.4159747631677939 0.5002373060636669	-0.221925
N	-0.0002398607583009 0.9159748011677971 0.0002373060636671	-0.221925
N	0.4997601392416992 0.5840252368322061 0.5002373060636669	-0.221939
N	0.0002398607583009 0.0840252088322037 0.0002373060636671	-0.221925
N	0.5840252368322061 0.5002398607583010 0.5002373060636669	-0.221939
N	0.0840252088322037 -0.0002398607583009 0.0002373060636671	-0.221925
N	0.4159747631677939 0.4997601392416992 0.5002373060636669	-0.221925
N	0.9159748011677971 0.0002398607583009 0.0002373060636671	-0.221925
	  	
