#======================================================================

# CRYSTAL DATA

#----------------------------------------------------------------------

data_VESTA_phase_1


_pd_phase_name                         VOFFIVE_2_Cd_i
_cell_length_a                         14.30591
_cell_length_b                         14.30591
_cell_length_c                         8.15687
_cell_angle_alpha                      90
_cell_angle_beta                       90
_cell_angle_gamma                      90
_symmetry_space_group_name_H-M         P 1
_symmetry_Int_Tables_number            1

loop_
_symmetry_equiv_pos_as_xyz
   x, y, z

loop_
   _atom_site_label
   _atom_site_fract_x
   _atom_site_fract_y
   _atom_site_fract_z
   _atom_site_charge
C	-0.0000000000000000 0.3080139027459994 0.3512308877519299	-0.159075
C	-0.0000000000000000 0.2109551183498099 0.3569871644238400	0.106226
C	0.5000000000000000 0.8080139027459993 0.8512308577519343	-0.159075
C	0.5000000000000000 0.7109551183498101 0.8569871054238384	0.106226
C	-0.0000000000000000 0.6919860972540007 0.3512308877519299	-0.159078
C	-0.0000000000000000 0.7890448816501899 0.3569871644238400	0.106228
C	0.5000000000000000 0.1919860972540008 0.8512308577519343	-0.159078
C	0.5000000000000000 0.2890448816501900 0.8569871054238384	0.106228
C	0.6919860972540007 -0.0000000000000000 0.3512308877519299	-0.159076
C	0.7890448816501899 -0.0000000000000000 0.3569871644238400	0.106237
C	0.1919860972540008 0.5000000000000000 0.8512308577519343	-0.159076
C	0.2890448816501900 0.5000000000000000 0.8569871054238384	0.106237
C	0.3080139027459994 -0.0000000000000000 0.3512308877519299	-0.159079
C	0.2109551183498099 -0.0000000000000000 0.3569871644238400	0.106240
C	0.8080139027459993 0.5000000000000000 0.8512308577519343	-0.159079
C	0.7109551183498101 0.5000000000000000 0.8569871054238384	0.106240
C	-0.0000000000000000 0.3084327880462947 0.6479389285766187	-0.159734
C	-0.0000000000000000 0.2114407638917422 0.6423993287207220	0.105043
C	0.5000000000000000 0.8084327880462947 0.1479388985766237	-0.159734
C	0.5000000000000000 0.7114407638917423 0.1423992847207251	0.105043
C	-0.0000000000000000 0.6915672119537053 0.6479389285766187	-0.159736
C	-0.0000000000000000 0.7885592361082577 0.6423993287207220	0.105045
C	0.5000000000000000 0.1915672119537055 0.1479388985766237	-0.159736
C	0.5000000000000000 0.2885592361082579 0.1423992847207251	0.105045
C	0.3084327880462947 -0.0000000000000000 0.6479389285766187	-0.159737
C	0.2114407638917422 -0.0000000000000000 0.6423993287207220	0.105055
C	0.8084327880462947 0.5000000000000000 0.1479388985766237	-0.159737
C	0.7114407638917423 0.5000000000000000 0.1423992847207251	0.105055
C	0.6915672119537053 -0.0000000000000000 0.6479389285766187	-0.159735
C	0.7885592361082577 -0.0000000000000000 0.6423993287207220	0.105053
C	0.1915672119537055 0.5000000000000000 0.1479388985766237	-0.159735
C	0.2885592361082579 0.5000000000000000 0.1423992847207251	0.105053
C	-0.0000000000000000 0.4573851813384640 0.4991694918299319	-0.096598
C	-0.0000000000000000 0.3585509001345211 0.4993674198979789	0.161079
C	0.5000000000000000 0.9573851463384646 -0.0008305081700681	-0.096597
C	0.5000000000000000 0.8585508651345218 -0.0006325801020209	0.161079
C	-0.0000000000000000 0.5426148186615360 0.4991694918299319	-0.096345
C	-0.0000000000000000 0.6414491348654782 0.4993674198979789	0.161049
C	0.5000000000000000 0.0426148316615406 -0.0008305081700681	-0.096345
C	0.5000000000000000 0.1414491178654803 -0.0006325801020209	0.161049
C	0.5426148186615360 -0.0000000000000000 0.4991694918299319	-0.096598
C	0.6414491348654782 -0.0000000000000000 0.4993674198979789	0.161080
C	0.0426148316615406 0.5000000000000000 -0.0008305081700681	-0.096598
C	0.1414491178654803 0.5000000000000000 -0.0006325801020209	0.161080
C	0.4573851813384640 -0.0000000000000000 0.4991694918299319	-0.096346
C	0.3585509001345211 -0.0000000000000000 0.4993674198979789	0.161050
C	0.9573851463384646 0.5000000000000000 -0.0008305081700681	-0.096346
C	0.8585508651345218 0.5000000000000000 -0.0006325801020209	0.161049
H	-0.0000000000000000 0.3443200309265070 0.2338811003428623	0.119093
H	-0.0000000000000000 0.1686681056382122 0.2454976411866866	0.107068
H	0.5000000000000000 0.8443200649265098 0.7338811153428603	0.119093
H	0.5000000000000000 0.6686681406382116 0.7454976261866887	0.107068
H	-0.0000000000000000 0.6556799350734902 0.2338811003428623	0.119092
H	-0.0000000000000000 0.8313318593617884 0.2454976411866866	0.107068
H	0.5000000000000000 0.1556799520734950 0.7338811153428603	0.119092
H	0.5000000000000000 0.3313318943617877 0.7454976261866887	0.107068
H	0.6556799350734902 -0.0000000000000000 0.2338811003428623	0.119093
H	0.8313318593617884 -0.0000000000000000 0.2454976411866866	0.107066
H	0.1556799520734950 0.5000000000000000 0.7338811153428603	0.119093
H	0.3313318943617877 0.5000000000000000 0.7454976261866887	0.107066
H	0.3443200309265070 -0.0000000000000000 0.2338811003428623	0.119092
H	0.1686681056382122 -0.0000000000000000 0.2454976411866866	0.107066
H	0.8443200649265098 0.5000000000000000 0.7338811153428603	0.119092
H	0.6686681406382116 0.5000000000000000 0.7454976261866887	0.107066
H	-0.0000000000000000 0.3448232094104143 0.7652160871710669	0.119228
H	-0.0000000000000000 0.1696635949766591 0.7543184764206188	0.099439
H	0.5000000000000000 0.8448232434104175 0.2652161161710655	0.119228
H	0.5000000000000000 0.6696636299766586 0.2543184474206202	0.099439
H	-0.0000000000000000 0.6551767565895825 0.7652160871710669	0.119227
H	-0.0000000000000000 0.8303363700233414 0.7543184764206188	0.099439
H	0.5000000000000000 0.1551767735895878 0.2652161161710655	0.119227
H	0.5000000000000000 0.3303364050233409 0.2543184474206202	0.099440
H	0.3448232094104143 -0.0000000000000000 0.7652160871710669	0.119227
H	0.1696635949766591 -0.0000000000000000 0.7543184764206188	0.099437
H	0.8448232434104175 0.5000000000000000 0.2652161161710655	0.119227
H	0.6696636299766586 0.5000000000000000 0.2543184474206202	0.099437
H	0.6551767565895825 -0.0000000000000000 0.7652160871710669	0.119228
H	0.8303363700233414 -0.0000000000000000 0.7543184764206188	0.099437
H	0.1551767735895878 0.5000000000000000 0.2652161161710655	0.119228
H	0.3303364050233409 0.5000000000000000 0.2543184474206202	0.099437
Cd	-0.0000000000000000 -0.0000000000000000 0.5007157953218458	0.856562
Cd	0.5000000000000000 0.5000000000000000 0.0007157953218460	0.856562
V	-0.0000000000000000 -0.0000000000000000 -0.0179689098303671	2.272997
V	0.5000000000000000 0.5000000000000000 0.4820310901696327	2.272997
N	-0.0000000000000000 0.1638952073768629 0.4999797801276537	-0.232599
N	0.5000000000000000 0.6638952073768628 -0.0000202198723463	-0.232599
N	-0.0000000000000000 0.8361047926231372 0.4999797801276537	-0.232598
N	0.5000000000000000 0.3361047926231371 -0.0000202198723463	-0.232598
N	0.8361047926231372 -0.0000000000000000 0.4999797801276537	-0.232602
N	0.3361047926231371 0.5000000000000000 -0.0000202198723463	-0.232602
N	0.1638952073768629 -0.0000000000000000 0.4999797801276537	-0.232602
N	0.6638952073768628 0.5000000000000000 -0.0000202198723463	-0.232602
O	-0.0000000000000000 -0.0000000000000000 0.7784915804028547	-0.829772
O	0.5000000000000000 0.5000000000000000 0.2784915514028556	-0.829772
F	-0.0000000000000000 -0.0000000000000000 0.2292594721497406	-0.627162
F	0.5000000000000000 0.5000000000000000 0.7292594281497442	-0.627162
F	0.5911549095979146 0.5911549095979146 0.5063893090390672	-0.587443
F	0.5911549095979146 0.4088450554020859 0.5063893090390672	-0.587443
F	0.4088450554020859 0.5911549095979146 0.5063893090390672	-0.587443
F	0.4088450554020859 0.4088450554020859 0.5063893090390672	-0.587443
F	0.0911549175979154 0.0911549175979154 0.0063893090390674	-0.587443
F	0.9088450904020854 0.9088450904020854 0.0063893090390674	-0.587443
F	0.9088450904020854 0.0911549175979154 0.0063893090390674	-0.587443
F	0.0911549175979154 0.9088450904020854 0.0063893090390674	-0.587443
	  	
