#======================================================================

# CRYSTAL DATA

#----------------------------------------------------------------------

data_VESTA_phase_1


_pd_phase_name                         VOFFIVE_16_Cd_i
_cell_length_a                         25.50118
_cell_length_b                         25.50118
_cell_length_c                         7.96483
_cell_angle_alpha                      90
_cell_angle_beta                       90
_cell_angle_gamma                      90
_symmetry_space_group_name_H-M         P 1
_symmetry_Int_Tables_number            1

loop_
_symmetry_equiv_pos_as_xyz
   x, y, z

loop_
   _atom_site_label
   _atom_site_fract_x
   _atom_site_fract_y
   _atom_site_fract_z
   _atom_site_charge
C	0.4793332448833127 0.3818157756581190 0.3696183405415909	0.101464
C	0.4779661400537919 0.3273579473162331 0.3654134629868369	-0.171278
C	0.9557439374226986 0.6114860509709709 0.9441722502685521	-0.124090
C	0.9558536545601071 0.5570079394297446 0.9448499280733756	-0.124866
C	0.5206667931166903 0.6181842243418810 0.3696183405415909	0.101464
C	0.5220338219462120 0.6726420146837717 0.3654134629868369	-0.171279
C	0.0442560575772969 0.3885139490290290 0.9441722502685521	-0.124090
C	0.0441463504398898 0.4429920605702555 0.9448499280733756	-0.124866
C	0.6181842243418810 0.4793332448833127 0.3696183405415909	0.101464
C	0.6726420146837717 0.4779661400537919 0.3654134629868369	-0.171279
C	0.3885139490290290 0.9557439374226986 0.9441722502685521	-0.124090
C	0.4429920605702555 0.9558536545601071 0.9448499280733756	-0.124866
C	0.3818157756581190 0.5206667931166903 0.3696183405415909	0.101464
C	0.3273579473162331 0.5220338219462120 0.3654134629868369	-0.171278
C	0.6114860509709709 0.0442560575772969 0.9441722502685521	-0.124090
C	0.5570079394297446 0.0441463504398898 0.9448499280733756	-0.124866
C	0.5210809009078613 0.3815919921282690 0.6292520810474481	0.100445
C	0.5221299317097478 0.3271710909812222 0.6335955357968438	-0.173482
C	0.0442797429966920 0.6114705791348618 0.0558218759251839	-0.123708
C	0.0441551287937380 0.5569935594474811 0.0551310383291722	-0.125125
C	0.4789191370921418 0.6184080078717311 0.6292520810474481	0.100445
C	0.4778700302902561 0.6728288710187816 0.6335955357968438	-0.173482
C	0.9557202520033040 0.3885294208651375 0.0558218759251839	-0.123708
C	0.9558448762062587 0.4430064405525194 0.0551310383291722	-0.125125
C	0.3815919921282690 0.4789191370921418 0.6292520810474481	0.100445
C	0.3271710909812222 0.4778700302902561 0.6335955357968438	-0.173482
C	0.6114705791348618 0.9557202520033040 0.0558218759251839	-0.123708
C	0.5569935594474811 0.9558448762062587 0.0551310383291722	-0.125125
C	0.6184080078717311 0.5210809009078613 0.6292520810474481	0.100445
C	0.6728288710187816 0.5221299317097478 0.6335955357968438	-0.173482
C	0.3885294208651375 0.0442797429966920 0.0558218759251839	-0.123708
C	0.4430064405525194 0.0441551287937380 0.0551310383291722	-0.125125
C	0.5442797479966960 0.8885294208651382 0.5558218839251842	-0.123708
C	0.5441551237937413 0.9430064405525189 0.5551310743291757	-0.125125
C	0.0210808839078635 0.1184079988717339 0.1292521130474439	0.100444
C	0.0221299697097437 0.1728288900187800 0.1335955357968432	-0.173483
C	0.4557202910033037 0.1114705691348616 0.5558218839251842	-0.123708
C	0.4558448762062590 0.0569935494474798 0.5551310743291757	-0.125125
C	0.9789190610921356 0.8815919921282689 0.1292521130474439	0.100445
C	0.9778700302902562 0.8271710909812223 0.1335955357968432	-0.173482
C	0.1114705691348616 0.5442797479966960 0.5558218839251842	-0.123708
C	0.0569935494474798 0.5441551237937413 0.5551310743291757	-0.125125
C	0.8815919921282689 0.0210808839078635 0.1292521130474439	0.100445
C	0.8271710909812223 0.0221299697097437 0.1335955357968432	-0.173482
C	0.8885294208651382 0.4557202910033037 0.5558218839251842	-0.123708
C	0.9430064405525189 0.4558448762062590 0.5551310743291757	-0.125125
C	0.1184079988717339 0.9789190610921356 0.1292521130474439	0.100444
C	0.1728288900187800 0.9778700302902562 0.1335955357968432	-0.173483
C	0.4557439764226989 0.8885139490290291 0.4441722502685519	-0.124090
C	0.4558536545601070 0.9429920605702554 0.4448499280733759	-0.124866
C	0.9793331688833066 0.1181842153418838 0.8696183405415906	0.101465
C	0.9779661400537920 0.1726420336837694 0.8654134309868348	-0.171278
C	0.5442560625773014 0.1114860409709701 0.4441722502685519	-0.124090
C	0.5441463454398929 0.0570079294297435 0.4448499280733759	-0.124867
C	0.0206667761166924 0.8818157756581190 0.8696183405415906	0.101474
C	0.0220338599462081 0.8273579473162322 0.8654134309868348	-0.171281
C	0.8885139490290291 0.5442560625773014 0.4441722502685519	-0.124090
C	0.9429920605702554 0.5441463454398929 0.4448499280733759	-0.124866
C	0.1181842153418838 0.0206667761166924 0.8696183405415906	0.101465
C	0.1726420336837694 0.0220338599462081 0.8654134309868348	-0.171278
C	0.1114860409709701 0.4557439764226989 0.4441722502685519	-0.124090
C	0.0570079294297435 0.4558536545601070 0.4448499280733759	-0.124867
C	0.8818157756581190 0.9793331688833066 0.8696183405415906	0.101474
C	0.8273579473162322 0.9779661400537920 0.8654134309868348	-0.171281
C	0.4999568813114370 0.2987962441504927 0.4995239247499743	0.175564
C	0.4998740804258014 0.2431728705959140 0.4995398636258537	-0.116790
C	0.4999370307432466 0.1953275814380663 0.4998465991519319	-0.093789
C	0.4999800296466499 0.1396984514322089 0.4999776726086507	0.121806
C	0.4999979851265329 0.0288554884561631 0.4999768249414129	0.064732
C	0.0000431186885631 0.7987962641504942 -0.0004760752500258	0.175568
C	0.0001259195741983 0.7431728895959121 -0.0004601363741463	-0.116791
C	0.0000629692567534 0.6953275814380661 -0.0001534008480683	-0.093789
C	0.0000199703533501 0.6396984514322094 -0.0000223273913491	0.121806
C	0.0000020148734671 0.5288554844561628 -0.0000231750585871	0.064732
C	0.5000431186885625 0.7012036978495098 0.4995239247499743	0.175564
C	0.5001259195741985 0.7568271484040839 0.4995398636258537	-0.116790
C	0.5000629692567538 0.8046723795619343 0.4998465991519319	-0.093789
C	0.5000199703533502 0.8603015095677909 0.4999776726086507	0.121806
C	0.5000020148734666 0.9711445545438369 0.4999768249414129	0.064732
C	-0.0000431186885631 0.2012037358495059 -0.0004760752500258	0.175564
C	-0.0001259195741983 0.2568271294040861 -0.0004601363741463	-0.116790
C	-0.0000629692567534 0.3046723985619320 -0.0001534008480683	-0.093789
C	-0.0000199703533501 0.3603015485677912 -0.0000223273913491	0.121806
C	-0.0000020148734671 0.4711445155438372 -0.0000231750585871	0.064732
C	0.7012036978495098 0.4999568813114370 0.4995239247499743	0.175564
C	0.7568271484040839 0.4998740804258014 0.4995398636258537	-0.116790
C	0.8046723795619343 0.4999370307432466 0.4998465991519319	-0.093789
C	0.8603015095677909 0.4999800296466499 0.4999776726086507	0.121806
C	0.9711445545438369 0.4999979851265329 0.4999768249414129	0.064732
C	0.2012037358495059 0.0000431186885631 -0.0004760752500258	0.175564
C	0.2568271294040861 0.0001259195741983 -0.0004601363741463	-0.116790
C	0.3046723985619320 0.0000629692567534 -0.0001534008480683	-0.093789
C	0.3603015485677912 0.0000199703533501 -0.0000223273913491	0.121806
C	0.4711445155438372 0.0000020148734671 -0.0000231750585871	0.064732
C	0.2987962441504927 0.5000431186885625 0.4995239247499743	0.175564
C	0.2431728705959140 0.5001259195741985 0.4995398636258537	-0.116790
C	0.1953275814380663 0.5000629692567538 0.4998465991519319	-0.093789
C	0.1396984514322089 0.5000199703533502 0.4999776726086507	0.121806
C	0.0288554884561631 0.5000020148734666 0.4999768249414129	0.064732
C	0.7987962641504942 -0.0000431186885631 -0.0004760752500258	0.175568
C	0.7431728895959121 -0.0001259195741983 -0.0004601363741463	-0.116791
C	0.6953275814380661 -0.0000629692567534 -0.0001534008480683	-0.093789
C	0.6396984514322094 -0.0000199703533501 -0.0000223273913491	0.121806
C	0.5288554844561628 -0.0000020148734671 -0.0000231750585871	0.064732
H	0.4638826092860660 0.4053868141023526 0.2659480143634752	0.108628
H	0.4603480051259922 0.3070934841038555 0.2592084733435481	0.125238
H	0.9215632282453838 0.6329527857281253 0.8993512376337220	0.111398
H	0.9217382136336396 0.5357419809664525 0.8979621167803561	0.106652
H	0.5361173907139336 0.5946132238976439 0.2659480143634752	0.108628
H	0.5396520328740042 0.6929065348961494 0.2592084733435481	0.125238
H	0.0784367717546163 0.3670472522718707 0.8993512376337220	0.111398
H	0.0782617673663628 0.4642580190335481 0.8979621167803561	0.106652
H	0.5946132238976439 0.4638826092860660 0.2659480143634752	0.108628
H	0.6929065348961494 0.4603480051259922 0.2592084733435481	0.125238
H	0.3670472522718707 0.9215632282453838 0.8993512376337220	0.111398
H	0.4642580190335481 0.9217382136336396 0.8979621167803561	0.106652
H	0.4053868141023526 0.5361173907139336 0.2659480143634752	0.108628
H	0.3070934841038555 0.5396520328740042 0.2592084733435481	0.125238
H	0.6329527857281253 0.0784367717546163 0.8993512376337220	0.111398
H	0.5357419809664525 0.0782617673663628 0.8979621167803561	0.106652
H	0.5368428394610932 0.4049609096166186 0.7327339242582001	0.103137
H	0.5396724040272891 0.3068503439424979 0.7398647217531399	0.125679
H	0.0784612354239546 0.6329306515110795 0.1006530878888784	0.111316
H	0.0782672593440977 0.5357188122994102 0.1019991910791793	0.106628
H	0.4631571605389064 0.5950391283833769 0.7327339242582001	0.103137
H	0.4603276339727068 0.6931496750575076 0.7398647217531399	0.125679
H	0.9215387645760452 0.3670693864889163 0.1006530878888784	0.111316
H	0.9217327216559041 0.4642811877005894 0.1019991910791793	0.106628
H	0.4049609096166186 0.4631571605389064 0.7327339242582001	0.103137
H	0.3068503439424979 0.4603276339727068 0.7398647217531399	0.125679
H	0.6329306515110795 0.9215387645760452 0.1006530878888784	0.111316
H	0.5357188122994102 0.9217327216559041 0.1019991910791793	0.106628
H	0.5950391283833769 0.5368428394610932 0.7327339242582001	0.103137
H	0.6931496750575076 0.5396724040272891 0.7398647217531399	0.125679
H	0.3670693864889163 0.0784612354239546 0.1006530878888784	0.111316
H	0.4642811877005894 0.0782672593440977 0.1019991910791793	0.106628
H	0.5784611974239587 0.8670693484889205 0.6006531118888806	0.111315
H	0.5782672403440998 0.9642811497005938 0.6019992070791803	0.106628
H	0.0368428414610936 0.0950390903833813 0.2327339242581998	0.103137
H	0.0396723660272931 0.1931496560575023 0.2398647217531392	0.125680
H	0.4215387645760457 0.1329306225110808 0.6006531118888806	0.111315
H	0.4217327596559003 0.0357188292994082 0.6019992070791803	0.106628
H	0.9631571985389099 0.9049609096166191 0.2327339242581998	0.103137
H	0.9603276339727069 0.8068503629424956 0.2398647217531392	0.125679
H	0.1329306225110808 0.5784611974239587 0.6006531118888806	0.111315
H	0.0357188292994082 0.5782672403440998 0.6019992070791803	0.106628
H	0.9049609096166191 0.0368428414610936 0.2327339242581998	0.103137
H	0.8068503629424956 0.0396723660272931 0.2398647217531392	0.125679
H	0.8670693484889205 0.4215387645760457 0.6006531118888806	0.111315
H	0.9642811497005938 0.4217327596559003 0.6019992070791803	0.106628
H	0.0950390903833813 0.9631571985389099 0.2327339242581998	0.103137
H	0.1931496560575023 0.9603276339727069 0.2398647217531392	0.125680
H	0.4215632282453837 0.8670472142718747 0.3993512056337195	0.111398
H	0.4217382516336353 0.9642579810335514 0.3979621807803537	0.106652
H	0.9638826472860695 0.0946131858976476 0.7659480303634769	0.108628
H	0.9603480051259918 0.1929065158961441 0.7592084413435525	0.125238
H	0.5784367337546201 0.1329527567281267 0.3993512056337195	0.111398
H	0.5782617483663643 0.0357419979664499 0.3979621807803537	0.106652
H	0.0361173927139342 0.9053868141023521 0.7659480303634769	0.108628
H	0.0396519948740079 0.8070935031038537 0.7592084413435525	0.125229
H	0.8670472142718747 0.5784367337546201 0.3993512056337195	0.111398
H	0.9642579810335514 0.5782617483663643 0.3979621807803537	0.106652
H	0.0946131858976476 0.0361173927139342 0.7659480303634769	0.108628
H	0.1929065158961441 0.0396519948740079 0.7592084413435525	0.125238
H	0.1329527567281267 0.4215632282453837 0.3993512056337195	0.111398
H	0.0357419979664499 0.4217382516336353 0.3979621807803537	0.106652
H	0.9053868141023521 0.9638826472860695 0.7659480303634769	0.108628
H	0.8070935031038537 0.9603480051259918 0.7592084413435525	0.125229
Cd	0.5000000000000000 0.5000000000000000 0.5020791416933300	0.864620
Cd	-0.0000000000000000 0.0000000000000000 0.0020791416933298	0.864619
V	0.5000000000000000 0.5000000000000000 -0.0156826555728417	2.292469
V	-0.0000000000000000 0.0000000000000000 0.4843173444271581	2.292469
F	0.5000000000000000 0.5000000000000000 0.2308152799420185	-0.621159
F	-0.0000000000000000 0.0000000000000000 0.7308152319420144	-0.621159
F	0.5517655724866266 0.5509988987227635 0.0074559036124819	-0.598418
F	0.0509988707227681 0.0517655444866319 0.5074559036124821	-0.598418
F	0.4482344655133690 0.4490011392772327 0.0074559036124819	-0.598418
F	0.9490011012772365 0.9482344275133734 0.5074559036124821	-0.598419
F	0.4490011392772327 0.5517655724866266 0.0074559036124819	-0.598418
F	0.9482344275133734 0.0509988707227681 0.5074559036124821	-0.598418
F	0.5509988987227635 0.4482344655133690 0.0074559036124819	-0.598418
F	0.0517655444866319 0.9490011012772365 0.5074559036124821	-0.598419
O	0.5000000000000000 0.5000000000000000 0.7770674360985019	-0.836251
O	-0.0000000000000000 0.0000000000000000 0.2770674040984991	-0.836251
N	0.5002548743846469 0.4082575617639180 0.4995340986999386	-0.236060
N	-0.0002548743846463 0.9082575997639213 -0.0004659013000612	-0.236061
N	0.4997451256153537 0.5917424382360819 0.4995340986999386	-0.236060
N	0.0002548743846463 0.0917424102360795 -0.0004659013000612	-0.236060
N	0.5917424382360819 0.5002548743846469 0.4995340986999386	-0.236060
N	0.0917424102360795 -0.0002548743846463 -0.0004659013000611	-0.236060
N	0.4082575617639180 0.4997451256153537 0.4995340986999386	-0.236060
N	0.9082575997639213 0.0002548743846463 -0.0004659013000612	-0.236061
	  	
