#======================================================================

# CRYSTAL DATA

#----------------------------------------------------------------------

data_VESTA_phase_1


_pd_phase_name                         VOFFIVE_5_Fe_i
_cell_length_a                         19.96984
_cell_length_b                         19.96984
_cell_length_c                         15.09271
_cell_angle_alpha                      90
_cell_angle_beta                       90
_cell_angle_gamma                      90
_symmetry_space_group_name_H-M         P 1
_symmetry_Int_Tables_number            1

loop_
_symmetry_equiv_pos_as_xyz
   x, y, z

loop_
   _atom_site_label
   _atom_site_fract_x
   _atom_site_fract_y
   _atom_site_fract_z
   _atom_site_charge
F	0.3218886612332590 0.1895248077953655 0.3513051325411391	-0.623091
F	0.1781113267667400 0.3104752042046283 0.3513051325411391	-0.623090
F	0.3104752042046283 0.3218886612332590 0.3513051325411391	-0.623090
F	0.1895248077953655 0.1781113267667400 0.3513051325411391	-0.623091
F	0.6787093602481389 0.6907187456212998 0.1471705802276317	-0.608099
F	0.8212906397518611 0.8092812543787002 0.1471705802276317	-0.608099
F	0.6907187456212998 0.8212906397518611 0.1471705802276317	-0.608098
F	0.8092812543787002 0.6787093602481389 0.1471705802276317	-0.608100
F	0.6787093602481389 0.8092812543787002 0.6471705952276295	-0.608098
F	0.8212906397518611 0.6907187456212998 0.6471705952276295	-0.608099
F	0.6907187456212998 0.6787093602481389 0.6471705952276295	-0.608098
F	0.8092812543787002 0.8212906397518611 0.6471705952276295	-0.608099
F	0.3218886612332590 0.3104752042046283 0.8513051015411399	-0.623090
F	0.1781113267667400 0.1895248077953655 0.8513051015411399	-0.623091
F	0.3104752042046283 0.1781113267667400 0.8513051015411399	-0.623091
F	0.1895248077953655 0.3218886612332590 0.8513051015411399	-0.623090
F	0.2500000000000000 0.2500000000000000 0.2293440362269942	-0.597606
F	0.7500000000000000 0.7500000000000000 0.0277486526676713	-0.590367
F	0.7500000000000000 0.7500000000000000 0.5277486486676713	-0.590368
F	0.2500000000000000 0.2500000000000000 0.7293440822269913	-0.597604
O	0.2500000000000000 0.2500000000000000 0.4761626922310657	-0.875504
O	0.7500000000000000 0.7500000000000000 0.2695737956513823	-0.870505
O	0.7500000000000000 0.7500000000000000 0.7695737646513835	-0.870504
O	0.2500000000000000 0.2500000000000000 0.9761626922310656	-0.875505
N	0.3576707061076788 0.2481975132314576 0.5999631325512095	-0.188354
N	0.1423292698923267 0.2518025107685444 0.5999631325512095	-0.188329
N	0.2518025107685444 0.3576707061076788 0.5999631325512095	-0.188325
N	0.2481975132314576 0.1423292698923267 0.5999631325512095	-0.188358
N	0.6424287392281400 0.7469542308554702 0.8978411610920410	-0.202460
N	0.8575712127718631 0.7530457691445298 0.8978411610920410	-0.202460
N	0.7469542308554702 0.8575712127718631 0.8978411610920410	-0.202461
N	0.7530457691445298 0.6424287392281400 0.8978411610920410	-0.202460
N	0.6424287392281400 0.7530457691445298 0.3978411610920407	-0.202461
N	0.8575712127718631 0.7469542308554702 0.3978411610920407	-0.202462
N	0.7469542308554702 0.6424287392281400 0.3978411610920407	-0.202463
N	0.7530457691445298 0.8575712127718631 0.3978411610920407	-0.202462
N	0.3576707061076788 0.2518025107685444 0.0999631405512028	-0.188327
N	0.1423292698923267 0.2481975132314576 0.0999631405512028	-0.188359
N	0.2518025107685444 0.1423292698923267 0.0999631405512028	-0.188330
N	0.2481975132314576 0.3576707061076788 0.0999631405512028	-0.188355
C	0.3897953631819139 0.2181971815198721 0.6676771375999813	0.103352
C	0.4592786726984472 0.2163171741518584 0.6718573485390121	-0.178106
C	0.4976190115157327 0.2473324786563148 0.6056328075590725	0.103903
C	0.4627675728049157 0.2785020704273690 0.5361364761489970	-0.182612
C	0.3932700186047476 0.2775013615367320 0.5348037899754898	0.107412
C	0.5713699944224657 0.2479073998533791 0.6090282705412774	0.055419
C	0.6074714871277943 0.1915516072062402 0.6379138338174918	-0.130445
C	0.6770667243612239 0.1923558497703073 0.6402833498567214	-0.124084
C	0.7131178493363676 0.2498071097824504 0.6155097884066852	0.065513
C	0.6769624672563744 0.3063751769351711 0.5875964683758846	-0.118478
C	0.6074218110100011 0.3051922050946244 0.5835825287892807	-0.127491
C	0.1102046488180867 0.2818027944801260 0.6676771375999813	0.103391
C	0.0407213423015505 0.2836828498481365 0.6718573485390121	-0.178122
C	0.0023809964842678 0.2526675213436852 0.6056328075590725	0.103912
C	0.0372324481950827 0.2214979295726312 0.5361364761489970	-0.182593
C	0.1067300053952543 0.2224986384632678 0.5348037899754898	0.107337
C	0.9286299575775374 0.2520926241466155 0.6090282705412774	0.055367
C	0.8925284648722088 0.3084483927937596 0.6379138338174918	-0.130447
C	0.8229332756387761 0.3076441622296938 0.6402833498567214	-0.124013
C	0.7868821506636324 0.2501929142175447 0.6155097884066852	0.065521
C	0.8230375327436256 0.1936248350648298 0.5875964683758846	-0.118482
C	0.8925781889899989 0.1948077709053735 0.5835825287892807	-0.127477
C	0.2818027944801260 0.3897953631819140 0.6676771375999813	0.103390
C	0.2836828498481365 0.4592786726984472 0.6718573485390121	-0.178118
C	0.2526675213436852 0.4976190115157327 0.6056328075590725	0.103903
C	0.2214979295726312 0.4627675728049157 0.5361364761489970	-0.182590
C	0.2224986384632678 0.3932700186047476 0.5348037899754898	0.107337
C	0.2520926241466155 0.5713699944224657 0.6090282705412774	0.055420
C	0.3084483927937596 0.6074714871277943 0.6379138338174918	-0.130447
C	0.3076441622296938 0.6770667243612239 0.6402833498567214	-0.124083
C	0.2501929142175447 0.7131178493363676 0.6155097884066852	0.065513
C	0.1936248350648298 0.6769624672563744 0.5875964683758846	-0.118478
C	0.1948077709053735 0.6074218110100011 0.5835825287892807	-0.127492
C	0.2181971815198721 0.1102046488180867 0.6676771375999813	0.103353
C	0.2163171741518584 0.0407213423015505 0.6718573485390121	-0.178107
C	0.2473324786563148 0.0023809964842678 0.6056328075590725	0.103913
C	0.2785020704273690 0.0372324481950827 0.5361364761489970	-0.182610
C	0.2775013615367320 0.1067300053952543 0.5348037899754898	0.107412
C	0.2479073998533791 0.9286299575775374 0.6090282705412774	0.055368
C	0.1915516072062402 0.8925284648722088 0.6379138338174918	-0.130449
C	0.1923558497703073 0.8229332756387761 0.6402833498567214	-0.124013
C	0.2498071097824504 0.7868821506636324 0.6155097884066852	0.065520
C	0.3063751769351711 0.8230375327436256 0.5875964683758846	-0.118481
C	0.3051922050946244 0.8925781889899989 0.5835825287892807	-0.127479
C	0.6088961255444376 0.7168293257255427 0.8314507864311647	0.104959
C	0.5394607186106133 0.7155744073745337 0.8281544710754108	-0.179139
C	0.5020777918236684 0.7470868308228134 0.8949328897845849	0.107278
C	0.5379229294012937 0.7779166148188462 0.9637470533716814	-0.179584
C	0.6075033003735560 0.7765736954481254 0.9634611499680220	0.104070
C	0.4283937251012604 0.7479597328533014 0.8918975366117201	0.051808
C	0.3923901188296958 0.6916283096956409 0.8627599555745074	-0.130350
C	0.3228533911957065 0.6923976236584611 0.8600411938024495	-0.121206
C	0.2868404435291977 0.7498645723929682 0.8847716765451678	0.066570
C	0.3228729424737818 0.8064713315755619 0.9127216379595442	-0.116943
C	0.3923977292872588 0.8053321070702643 0.9170899435873223	-0.126278
C	0.8911038274555620 0.7831706742744573 0.8314507864311647	0.104964
C	0.9605392813893867 0.7844255926254663 0.8281544710754108	-0.179136
C	0.9979222081763316 0.7529131691771866 0.8949328897845849	0.107277
C	0.9620770705987063 0.7220833851811538 0.9637470533716814	-0.179585
C	0.8924966996264440 0.7234263045518746 0.9634611499680220	0.104070
C	0.0716062748987398 0.7520402671466986 0.8918975366117201	0.051807
C	0.1076098571703093 0.8083717383043559 0.8627599555745074	-0.130346
C	0.1771466088042937 0.8076024243415428 0.8600411938024495	-0.121221
C	0.2131595564708022 0.7501354276070318 0.8847716765451678	0.066698
C	0.1771270815262198 0.6935287164244420 0.9127216379595442	-0.116972
C	0.1076022707127412 0.6946679409297326 0.9170899435873223	-0.126269
C	0.7168293257255427 0.8911038274555620 0.8314507864311647	0.104967
C	0.7155744073745337 0.9605392813893867 0.8281544710754108	-0.179135
C	0.7470868308228134 0.9979222081763316 0.8949328897845849	0.107277
C	0.7779166148188462 0.9620770705987063 0.9637470533716814	-0.179580
C	0.7765736954481254 0.8924966996264440 0.9634611499680220	0.104072
C	0.7479597328533014 0.0716062748987398 0.8918975366117201	0.051809
C	0.6916283096956409 0.1076098571703093 0.8627599555745074	-0.130351
C	0.6923976236584611 0.1771466088042937 0.8600411938024495	-0.121205
C	0.7498645723929682 0.2131595564708022 0.8847716765451678	0.066570
C	0.8064713315755619 0.1771270815262198 0.9127216379595442	-0.116942
C	0.8053321070702643 0.1076022707127412 0.9170899435873223	-0.126279
C	0.7831706742744573 0.6088961255444376 0.8314507864311647	0.104963
C	0.7844255926254663 0.5394607186106133 0.8281544710754108	-0.179136
C	0.7529131691771866 0.5020777918236684 0.8949328897845849	0.107277
C	0.7220833851811538 0.5379229294012937 0.9637470533716814	-0.179582
C	0.7234263045518746 0.6075033003735560 0.9634611499680220	0.104072
C	0.7520402671466986 0.4283937251012604 0.8918975366117201	0.051808
C	0.8083717383043559 0.3923901188296958 0.8627599555745074	-0.130349
C	0.8076024243415428 0.3228533911957065 0.8600411938024495	-0.121221
C	0.7501354276070318 0.2868404435291977 0.8847716765451678	0.066698
C	0.6935287164244420 0.3228729424737818 0.9127216379595442	-0.116972
C	0.6946679409297326 0.3923977292872588 0.9170899435873223	-0.126272
C	0.6088961255444376 0.7831706742744573 0.3314508184311666	0.104959
C	0.5394607186106133 0.7844255926254663 0.3281544400754121	-0.179137
C	0.5020777918236684 0.7529131691771866 0.3949329517845835	0.107277
C	0.5379229294012937 0.7220833851811538 0.4637470223716825	-0.179587
C	0.6075033003735560 0.7234263045518746 0.4634611499680220	0.104071
C	0.4283937251012604 0.7520402671466986 0.3918975676117187	0.051808
C	0.3923901188296958 0.8083717383043559 0.3627600185745095	-0.130350
C	0.3228533911957065 0.8076024243415428 0.3600411938024499	-0.121206
C	0.2868404435291977 0.7501354276070318 0.3847716765451676	0.066572
C	0.3228729424737818 0.6935287164244420 0.4127216379595444	-0.116959
C	0.3923977292872588 0.6946679409297326 0.4170899745873287	-0.126278
C	0.8911038274555620 0.7168293257255427 0.3314508184311666	0.104964
C	0.9605392813893867 0.7155744073745337 0.3281544400754121	-0.179136
C	0.9979222081763316 0.7470868308228134 0.3949329517845835	0.107277
C	0.9620770705987063 0.7779166148188462 0.4637470223716825	-0.179586
C	0.8924966996264440 0.7765736954481254 0.4634611499680220	0.104070
C	0.0716062748987398 0.7479597328533014 0.3918975676117187	0.051808
C	0.1076098571703093 0.6916283096956409 0.3627600185745095	-0.130346
C	0.1771466088042937 0.6923976236584611 0.3600411938024499	-0.121220
C	0.2131595564708022 0.7498645723929682 0.3847716765451676	0.066696
C	0.1771270815262198 0.8064713315755619 0.4127216379595444	-0.116956
C	0.1076022707127412 0.8053321070702643 0.4170899745873287	-0.126280
C	0.7168293257255427 0.6088961255444376 0.3314508184311666	0.104962
C	0.7155744073745337 0.5394607186106133 0.3281544400754121	-0.179135
C	0.7470868308228134 0.5020777918236684 0.3949329517845835	0.107277
C	0.7779166148188462 0.5379229294012937 0.4637470223716825	-0.179583
C	0.7765736954481254 0.6075033003735560 0.4634611499680220	0.104073
C	0.7479597328533014 0.4283937251012604 0.3918975676117187	0.051810
C	0.6916283096956409 0.3923901188296958 0.3627600185745095	-0.130352
C	0.6923976236584611 0.3228533911957065 0.3600411938024499	-0.121205
C	0.7498645723929682 0.2868404435291977 0.3847716765451676	0.066569
C	0.8064713315755619 0.3228729424737818 0.4127216379595444	-0.116943
C	0.8053321070702643 0.3923977292872588 0.4170899745873287	-0.126286
C	0.7831706742744573 0.8911038274555620 0.3314508184311666	0.104967
C	0.7844255926254663 0.9605392813893867 0.3281544400754121	-0.179133
C	0.7529131691771866 0.9979222081763316 0.3949329517845835	0.107277
C	0.7220833851811538 0.9620770705987063 0.4637470223716825	-0.179583
C	0.7234263045518746 0.8924966996264440 0.4634611499680220	0.104072
C	0.7520402671466986 0.0716062748987398 0.3918975676117187	0.051808
C	0.8083717383043559 0.1076098571703093 0.3627600185745095	-0.130348
C	0.8076024243415428 0.1771466088042937 0.3600411938024499	-0.121220
C	0.7501354276070318 0.2131595564708022 0.3847716765451676	0.066699
C	0.6935287164244420 0.1771270815262198 0.4127216379595444	-0.116971
C	0.6946679409297326 0.1076022707127412 0.4170899745873287	-0.126277
C	0.3897953631819140 0.2818027944801260 0.1676771375999810	0.103393
C	0.4592786726984472 0.2836828498481365 0.1718573795390110	-0.178129
C	0.4976190115157327 0.2526675213436852 0.1056327535590756	0.103943
C	0.4627675728049157 0.2214979295726312 0.0361365001489989	-0.182621
C	0.3932700186047476 0.2224986384632678 0.0348038129754955	0.107343
C	0.5713699944224657 0.2520926241466155 0.1090282395412784	0.055413
C	0.6074714871277943 0.3084483927937596 0.1379137868174914	-0.130450
C	0.6770667243612239 0.3076441622296938 0.1402833658567230	-0.124084
C	0.7131178493363676 0.2501929142175447 0.1155097964066855	0.065511
C	0.6769624672563744 0.1936248350648298 0.0875964913758832	-0.118479
C	0.6074218110100011 0.1948077709053735 0.0835825047892789	-0.127490
C	0.1102046488180867 0.2181971815198721 0.1676771375999810	0.103356
C	0.0407213423015505 0.2163171741518584 0.1718573795390110	-0.178119
C	0.0023809964842678 0.2473324786563148 0.1056327535590756	0.103954
C	0.0372324481950827 0.2785020704273690 0.0361365001489989	-0.182640
C	0.1067300053952543 0.2775013615367320 0.0348038129754955	0.107417
C	0.9286299575775374 0.2479073998533791 0.1090282395412784	0.055360
C	0.8925284648722088 0.1915516072062402 0.1379137868174914	-0.130451
C	0.8229332756387761 0.1923558497703073 0.1402833658567230	-0.124013
C	0.7868821506636324 0.2498071097824504 0.1155097964066855	0.065519
C	0.8230375327436256 0.3063751769351711 0.0875964913758832	-0.118483
C	0.8925781889899989 0.3051922050946244 0.0835825047892789	-0.127477
C	0.2818027944801260 0.1102046488180867 0.1676771375999810	0.103395
C	0.2836828498481365 0.0407213423015505 0.1718573795390110	-0.178130
C	0.2526675213436852 0.0023809964842678 0.1056327535590756	0.103952
C	0.2214979295726312 0.0372324481950827 0.0361365001489989	-0.182619
C	0.2224986384632678 0.1067300053952543 0.0348038129754955	0.107342
C	0.2520926241466155 0.9286299575775374 0.1090282395412784	0.055362
C	0.3084483927937596 0.8925284648722088 0.1379137868174914	-0.130454
C	0.3076441622296938 0.8229332756387761 0.1402833658567230	-0.124010
C	0.2501929142175447 0.7868821506636324 0.1155097964066855	0.065499
C	0.1936248350648298 0.8230375327436256 0.0875964913758832	-0.118480
C	0.1948077709053735 0.8925781889899989 0.0835825047892789	-0.127479
C	0.2181971815198721 0.3897953631819139 0.1676771375999810	0.103354
C	0.2163171741518584 0.4592786726984472 0.1718573795390110	-0.178114
C	0.2473324786563148 0.4976190115157327 0.1056327535590756	0.103945
C	0.2785020704273690 0.4627675728049157 0.0361365001489989	-0.182638
C	0.2775013615367320 0.3932700186047476 0.0348038129754955	0.107417
C	0.2479073998533791 0.5713699944224657 0.1090282395412784	0.055413
C	0.1915516072062402 0.6074714871277943 0.1379137868174914	-0.130451
C	0.1923558497703073 0.6770667243612239 0.1402833658567230	-0.124087
C	0.2498071097824504 0.7131178493363676 0.1155097964066855	0.065531
C	0.3063751769351711 0.6769624672563744 0.0875964913758832	-0.118481
C	0.3051922050946244 0.6074218110100011 0.0835825047892789	-0.127492
H	0.3586775360897143 0.1968583363981923 0.7200427141273396	0.114131
H	0.4831000083249879 0.1924103724723854 0.7285726869184969	0.114708
H	0.4895531235539882 0.3023812753941677 0.4817853237171633	0.114612
H	0.3648186672287790 0.2995386586770750 0.4802979628747848	0.111443
H	0.5804594790096036 0.1463142723414331 0.6570647024610978	0.098496
H	0.7041779867429002 0.1481704484756751 0.6628889595578762	0.099725
H	0.7038466467931361 0.3509716523592013 0.5658938108905482	0.100363
H	0.5804052797267965 0.3495770195775253 0.5613276022914521	0.103047
H	0.1413224759102864 0.3031416636018075 0.7200427141273396	0.114124
H	0.0169000216750146 0.3075896035276125 0.7285726869184969	0.114708
H	0.0104468794460083 0.1976187246058325 0.4817853237171633	0.114611
H	0.1351813207712200 0.2004613413229248 0.4802979628747848	0.111456
H	0.9195404729903995 0.3536857396585681 0.6570647024610978	0.098478
H	0.7958220132570998 0.3518295395243238 0.6628889595578762	0.099716
H	0.7961533532068639 0.1490283476407986 0.5658938108905482	0.100360
H	0.9195947202732035 0.1504229804224743 0.5613276022914521	0.103045
H	0.3031416636018075 0.3586775360897143 0.7200427141273396	0.114124
H	0.3075896035276125 0.4831000083249879 0.7285726869184969	0.114709
H	0.1976187246058325 0.4895531235539882 0.4817853237171633	0.114610
H	0.2004613413229248 0.3648186672287790 0.4802979628747848	0.111456
H	0.3536857396585681 0.5804594790096036 0.6570647024610978	0.098502
H	0.3518295395243238 0.7041779867429002 0.6628889595578762	0.099725
H	0.1490283476407986 0.7038466467931361 0.5658938108905482	0.100361
H	0.1504229804224743 0.5804052797267965 0.5613276022914521	0.103054
H	0.1968583363981923 0.1413224759102864 0.7200427141273396	0.114131
H	0.1924103724723854 0.0169000216750146 0.7285726869184969	0.114708
H	0.3023812753941677 0.0104468794460083 0.4817853237171633	0.114612
H	0.2995386586770750 0.1351813207712200 0.4802979628747848	0.111442
H	0.1463142723414331 0.9195404729903995 0.6570647024610978	0.098484
H	0.1481704484756751 0.7958220132570998 0.6628889595578762	0.099716
H	0.3509716523592013 0.7961533532068639 0.5658938108905482	0.100360
H	0.3495770195775253 0.9195947202732035 0.5613276022914521	0.103053
H	0.6390415087438885 0.6943997425467027 0.7790131270836421	0.106955
H	0.5147706570450222 0.6918796547915900 0.7719442341382079	0.116484
H	0.5118644085269096 0.8019396051106210 0.0186708456469596	0.116249
H	0.6368250214221499 0.7986517099766579 0.0170164728559771	0.110004
H	0.4194842522983155 0.6464382626647738 0.8436088763638070	0.099024
H	0.2957614151010952 0.6482793397573211 0.8372112035187329	0.101965
H	0.2958628967442755 0.8510744814792826 0.9341298880945663	0.102996
H	0.4193908700329109 0.8497417643586016 0.9392778740078781	0.103609
H	0.8609585382561118 0.8056003054533013 0.7790131270836421	0.106951
H	0.9852293429549778 0.8081203452084100 0.7719442341382079	0.116484
H	0.9881355444730900 0.6980603948893790 0.0186708456469596	0.116248
H	0.8631749305778532 0.7013482900233421 0.0170164728559771	0.110003
H	0.0805157717016793 0.8535617373352262 0.8436088763638070	0.099025
H	0.2042385848989048 0.8517206602426789 0.8372112035187329	0.101967
H	0.2041371032557247 0.6489254705207135 0.9341298880945663	0.103010
H	0.0806091419670902 0.6502581876413944 0.9392778740078781	0.103609
H	0.6943997425467027 0.8609585382561118 0.7790131270836421	0.106951
H	0.6918796547915900 0.9852293429549778 0.7719442341382079	0.116485
H	0.8019396051106210 0.9881355444730900 0.0186708456469596	0.116248
H	0.7986517099766579 0.8631749305778532 0.0170164728559771	0.110003
H	0.6464382626647738 0.0805157717016793 0.8436088763638070	0.099030
H	0.6482793397573211 0.2042385848989048 0.8372112035187329	0.101966
H	0.8510744814792826 0.2041371032557247 0.9341298880945663	0.102996
H	0.8497417643586016 0.0806091419670902 0.9392778740078781	0.103617
H	0.8056003054533013 0.6390415087438885 0.7790131270836421	0.106955
H	0.8081203452084100 0.5147706570450222 0.7719442341382079	0.116485
H	0.6980603948893790 0.5118644085269096 0.0186708456469596	0.116249
H	0.7013482900233421 0.6368250214221499 0.0170164728559771	0.110003
H	0.8535617373352262 0.4194842522983155 0.8436088763638070	0.099031
H	0.8517206602426789 0.2957614151010952 0.8372112035187329	0.101966
H	0.6489254705207135 0.2958628967442755 0.9341298880945663	0.103009
H	0.6502581876413944 0.4193908700329109 0.9392778740078781	0.103615
H	0.6390415087438885 0.8056003054533013 0.2790130960836430	0.106955
H	0.5147706570450222 0.8081203452084100 0.2719442341382083	0.116481
H	0.5118644085269096 0.6980603948893790 0.5186708646469647	0.116258
H	0.6368250214221499 0.7013482900233421 0.5170164438559782	0.110004
H	0.4194842522983155 0.8535617373352262 0.3436088763638077	0.099024
H	0.2957614151010952 0.8517206602426789 0.3372112345187387	0.101965
H	0.2958628967442755 0.6489254705207135 0.4341298880945666	0.103007
H	0.4193908700329109 0.6502581876413944 0.4392779360078756	0.103615
H	0.8609585382561118 0.6943997425467027 0.2790130960836430	0.106950
H	0.9852293429549778 0.6918796547915900 0.2719442341382083	0.116482
H	0.9881355444730900 0.8019396051106210 0.5186708646469647	0.116258
H	0.8631749305778532 0.7986517099766579 0.5170164438559782	0.110004
H	0.0805157717016793 0.6464382626647738 0.3436088763638077	0.099024
H	0.2042385848989048 0.6482793397573211 0.3372112345187387	0.101967
H	0.2041371032557247 0.8510744814792826 0.4341298880945666	0.102997
H	0.0806091419670902 0.8497417643586016 0.4392779360078756	0.103617
H	0.6943997425467027 0.6390415087438885 0.2790130960836430	0.106955
H	0.6918796547915900 0.5147706570450222 0.2719442341382083	0.116483
H	0.8019396051106210 0.5118644085269096 0.5186708646469647	0.116258
H	0.7986517099766579 0.6368250214221499 0.5170164438559782	0.110004
H	0.6464382626647738 0.4194842522983155 0.3436088763638077	0.099030
H	0.6482793397573211 0.2957614151010952 0.3372112345187387	0.101966
H	0.8510744814792826 0.2958628967442755 0.4341298880945666	0.102994
H	0.8497417643586016 0.4193908700329109 0.4392779360078756	0.103624
H	0.8056003054533013 0.8609585382561118 0.2790130960836430	0.106950
H	0.8081203452084100 0.9852293429549778 0.2719442341382083	0.116482
H	0.6980603948893790 0.9881355444730900 0.5186708646469647	0.116258
H	0.7013482900233421 0.8631749305778532 0.5170164438559782	0.110004
H	0.8535617373352262 0.0805157717016793 0.3436088763638077	0.099031
H	0.8517206602426789 0.2042385848989048 0.3372112345187387	0.101967
H	0.6489254705207135 0.2041371032557247 0.4341298880945666	0.103009
H	0.6502581876413944 0.0806091419670902 0.4392779360078756	0.103622
H	0.3586775360897143 0.3031416636018075 0.2200427451273382	0.114124
H	0.4831000083249879 0.3075896035276125 0.2285726719184994	0.114714
H	0.4895531235539882 0.1976187246058325 0.9817852927171573	0.114607
H	0.3648186672287790 0.2004613413229248 0.9802979628747850	0.111455
H	0.5804594790096036 0.3536857396585681 0.1570647024610977	0.098516
H	0.7041779867429002 0.3518295395243238 0.1628889435578746	0.099725
H	0.7038466467931361 0.1490283476407986 0.0658938188905494	0.100361
H	0.5804052797267965 0.1504229804224743 0.0613275552914518	0.103063
H	0.1413224759102864 0.1968583363981923 0.2200427451273382	0.114130
H	0.0169000216750146 0.1924103724723854 0.2285726719184994	0.114712
H	0.0104468794460083 0.3023812753941677 0.9817852927171573	0.114609
H	0.1351813207712200 0.2995386586770750 0.9802979628747850	0.111442
H	0.9195404729903995 0.1463142723414331 0.1570647024610977	0.098498
H	0.7958220132570998 0.1481704484756751 0.1628889435578746	0.099715
H	0.7961533532068639 0.3509716523592013 0.0658938188905494	0.100360
H	0.9195947202732035 0.3495770195775253 0.0613275552914518	0.103061
H	0.3031416636018075 0.1413224759102864 0.2200427451273382	0.114124
H	0.3075896035276125 0.0169000216750146 0.2285726719184994	0.114714
H	0.1976187246058325 0.0104468794460083 0.9817852927171573	0.114608
H	0.2004613413229248 0.1351813207712200 0.9802979628747850	0.111456
H	0.3536857396585681 0.9195404729903995 0.1570647024610977	0.098504
H	0.3518295395243238 0.7958220132570998 0.1628889435578746	0.099717
H	0.1490283476407986 0.7961533532068639 0.0658938188905494	0.100361
H	0.1504229804224743 0.9195947202732035 0.0613275552914518	0.103068
H	0.1968583363981923 0.3586775360897143 0.2200427451273382	0.114131
H	0.1924103724723854 0.4831000083249879 0.2285726719184994	0.114714
H	0.3023812753941677 0.4895531235539882 0.9817852927171573	0.114608
H	0.2995386586770750 0.3648186672287790 0.9802979628747850	0.111441
H	0.1463142723414331 0.5804594790096036 0.1570647024610977	0.098521
H	0.1481704484756751 0.7041779867429002 0.1628889435578746	0.099722
H	0.3509716523592013 0.7038466467931361 0.0658938188905494	0.100360
H	0.3495770195775253 0.5804052797267965 0.0613275552914518	0.103070
Fe	0.2500000000000000 0.2500000000000000 0.5951661834255775	0.776174
Fe	0.7500000000000000 0.7500000000000000 0.8966619969381294	0.799562
Fe	0.7500000000000000 0.7500000000000000 0.3966619969381289	0.799565
Fe	0.2500000000000000 0.2500000000000000 0.0951661914255778	0.776176
V	0.2500000000000000 0.2500000000000000 0.3614539169687198	2.147450
V	0.7500000000000000 0.7500000000000000 0.1595832467624463	2.220897
V	0.7500000000000000 0.7500000000000000 0.6595832467624467	2.220897
V	0.2500000000000000 0.2500000000000000 0.8614539479687188	2.147451
	  	
