#======================================================================

# CRYSTAL DATA

#----------------------------------------------------------------------

data_VESTA_phase_1


_pd_phase_name                         VOFFIVE_18_Cd
_cell_length_a                         14.67650
_cell_length_b                         14.18139
_cell_length_c                         8.15098
_cell_angle_alpha                      89.62503
_cell_angle_beta                       94.87067
_cell_angle_gamma                      90.13172
_symmetry_space_group_name_H-M         P 1
_symmetry_Int_Tables_number            1

loop_
_symmetry_equiv_pos_as_xyz
   x, y, z

loop_
   _atom_site_label
   _atom_site_fract_x
   _atom_site_fract_y
   _atom_site_fract_z
   _atom_site_charge
F	0.4114059556975415 0.3747098039751310 0.5139807715392367	-0.572128
F	0.5224713888190357 0.4732316337076240 0.7269351364894966	-0.633280
F	0.4104071640700963 0.5585273796570172 0.5199838715320750	-0.571103
F	0.9114060226975436 0.8747097699751356 0.5139807715392367	-0.572123
F	0.0224713618190371 0.9732315647076288 0.7269351364894966	-0.633282
F	0.9104070970700943 0.0585274006570151 0.5199838715320750	-0.571102
F	0.5812382121638380 0.3691738521047525 0.4909315008430756	-0.572654
F	0.5945896236572554 0.5535189712232317 0.4891878970327730	-0.570098
F	0.0812382381638400 0.8691738181047568 0.4909315008430756	-0.572651
F	0.0945896156572549 0.0535189922232297 0.4891878970327730	-0.570094
O	0.4791634425561089 0.4754981264344296 0.2787836124706806	-0.797030
O	0.9791634095561096 0.9754980574344343 0.2787836124706806	-0.797006
C	0.6822983432108529 0.1520782665980294 0.6592367912217704	-0.424258
C	0.7534680729404305 0.1523105295782552 0.8004724417060637	0.205847
C	0.7561946792070806 0.1969650730512967 0.9538614700849279	-0.151336
C	0.6872348158827550 0.2587687342670489 0.0146674504517622	-0.145948
C	0.6758068879884561 0.3561233470185752 0.9773548373946993	0.220574
C	0.7292666938696931 0.4166512047241419 0.8699220765843776	-0.425752
C	0.8845002442568944 0.2090879821823362 0.1965274722372462	-0.429020
C	0.8435983553565121 0.1761467710018550 0.0331356879057907	0.211303
C	0.6219032510769041 0.2373164665252459 0.1252023625033590	0.205060
C	0.5983488078208569 0.1476715631207971 0.2077818940782274	-0.425358
C	0.1822983602108506 0.6520783005980254 0.6592367912217704	-0.424257
C	0.2534681069404262 0.6523105635782582 0.8004724417060637	0.205842
C	0.2561947302070811 0.6969651070512922 0.9538614700849279	-0.151334
C	0.1872348498827506 0.7587687342670488 0.0146674504517622	-0.145946
C	0.1758068629884504 0.8561233810185781 0.9773548373946993	0.220576
C	0.2292667438696900 0.9166512387241377 0.8699220765843776	-0.425762
C	0.3845001772568927 0.7090879651823311 0.1965274722372462	-0.429026
C	0.3435984223565138 0.6761467710018552 0.0331356879057907	0.211312
C	0.1219032510769112 0.7373164835252438 0.1252023625033590	0.205059
C	0.0983487488208627 0.6476715801207946 0.2077818940782274	-0.425355
C	0.3178799925990515 0.1520442696968017 0.3421154707827630	-0.424546
C	0.2466262000268208 0.1524940134798077 0.2009682469673324	0.206177
C	0.2441844926309568 0.1969877825583405 0.0464818463837056	-0.151777
C	0.3132520774385855 0.2591772668751430 0.9850880676200633	-0.146928
C	0.3244933786070250 0.3563036883429821 0.0221673020939860	0.215355
C	0.2700823806738133 0.4159391529149342 0.1278106941617035	-0.421981
C	0.1156909825917098 0.2089496453589805 0.8035945570516259	-0.433512
C	0.1566979317447517 0.1762948096664231 0.9677702304153394	0.212556
C	0.3786738662498002 0.2389535308590221 0.8744881946550460	0.205593
C	0.4020007643054972 0.1497653954077401 0.7923080490476260	-0.425707
C	0.8178800255990506 0.6520443036967973 0.3421154707827630	-0.424546
C	0.7466262330268201 0.6524940474798107 0.2009682469673324	0.206173
C	0.7441845266309597 0.6969878165583362 0.0464818463837056	-0.151771
C	0.8132521114385886 0.7591772668751429 0.9850880676200633	-0.146903
C	0.8244933446070292 0.8563037223429849 0.0221673020939860	0.215349
C	0.7700824486738119 0.9159391869149299 0.1278106941617035	-0.421981
C	0.6156909195917082 0.7089496283589756 0.8035945570516259	-0.433511
C	0.6566979827447523 0.6762948096664231 0.9677702304153394	0.212535
C	0.8786738662498002 0.7389535478590198 0.8744881946550460	0.205587
C	0.9020006973054950 0.6497654124077379 0.7923080490476260	-0.425706
H	0.7118382079219702 0.1726219932011777 0.5448369422090460	0.149173
H	0.6282460610593603 0.2026491490764821 0.6806415635433636	0.144523
H	0.6514226269528381 0.0817633844654957 0.6400441202913957	0.133229
H	0.6833344470511932 0.4556984752692951 0.7804883672922801	0.154539
H	0.7752212203516698 0.3731308946658066 0.8028482994382504	0.136074
H	0.7711821986534112 0.4678470959372743 0.9442548017488795	0.125883
H	0.8603982105942235 0.0763108102625806 0.6954209917920616	0.291600
H	0.8907849319740645 0.1519168395140104 0.2885139075520149	0.152702
H	0.8419367159633255 0.2648790318450967 0.2429625744878698	0.134572
H	0.9534913636283874 0.2374291160656378 0.1855872710152267	0.137893
H	0.5754904700429250 0.1612713672084817 0.3301890222779531	0.143590
H	0.6577576922369672 0.1006648055459864 0.2213267888637664	0.148291
H	0.5427933422091424 0.1101017541079100 0.1359952319769838	0.131221
H	0.5310443557849934 0.3325201504895443 0.2304169846892860	0.273860
H	0.2118381739219744 0.6726219932011774 0.5448369422090460	0.149174
H	0.1282460700593649 0.7026490980764813 0.6806415635433636	0.144523
H	0.1514226009528360 0.5817633674654906 0.6400441202913957	0.133231
H	0.1833344810511890 0.9556985092692979 0.7804883672922801	0.154547
H	0.2752212703516669 0.8731309286658093 0.8028482994382504	0.136072
H	0.2711821986534110 0.9678470609372678 0.9442548017488795	0.125884
H	0.3603982775942256 0.5763108012625833 0.6954209917920616	0.291597
H	0.3907849319740647 0.6519168395140105 0.2885139075520149	0.152705
H	0.3419367159633325 0.7648789968450973 0.2429625744878698	0.134572
H	0.4534913636283874 0.7374291330656355 0.1855872710152267	0.137897
H	0.0754904490429266 0.6612713842084793 0.3301890222779531	0.143587
H	0.1577577422369640 0.6006647975459928 0.2213267888637664	0.148291
H	0.0427933042091392 0.6101017021079058 0.1359952319769838	0.131218
H	0.0310443417849924 0.8325201854895438 0.2304169846892860	0.273858
H	0.2886008951284696 0.1722961631829044 0.4563453811167809	0.150520
H	0.3720887801011186 0.2026233189894981 0.3196102751651478	0.141676
H	0.3485369577290736 0.0816913828224210 0.3621561379838763	0.134113
H	0.3150031338973126 0.4559665503712538 0.2166575829807995	0.148439
H	0.2244445439159126 0.3717949380947898 0.1957163977472607	0.137255
H	0.2278773368673045 0.4665852818113765 0.0520168207564072	0.127812
H	0.1400341056547546 0.0769164092214391 0.3088876759082264	0.285797
H	0.1085386052049250 0.1513159020788635 0.7137802218462446	0.156335
H	0.1585786404161799 0.2643187968831666 0.7549639647614580	0.135536
H	0.0470281574115803 0.2378647938889472 0.8143304135933449	0.137891
H	0.4249339345074359 0.1639530729000766 0.6697646909832328	0.144362
H	0.3423818661815827 0.1028002447538139 0.7791037018909139	0.148456
H	0.4573789864225777 0.1117301188610001 0.8643169395707813	0.130497
H	0.4689474815262870 0.3369415618069003 0.7685735459117250	0.283547
H	0.7886009291284723 0.6722961631829043 0.4563453811167809	0.150520
H	0.8720887801011185 0.7026232679894976 0.3196102751651478	0.141676
H	0.8485369247290742 0.5816913658224232 0.3621561379838763	0.134112
H	0.8150031668973117 0.9559665843712568 0.2166575829807995	0.148434
H	0.7244445779159155 0.8717949720947923 0.1957163977472607	0.137256
H	0.7278773198673064 0.9665852468113698 0.0520168207564072	0.127812
H	0.6400341476547579 0.5769164002214421 0.3088876759082264	0.285799
H	0.6085386472049285 0.6513159020788634 0.7137802218462446	0.156336
H	0.6585786574161776 0.7643187618831672 0.7549639647614580	0.135539
H	0.5470281364115822 0.7378648108889448 0.8143304135933449	0.137891
H	0.9249339345074362 0.6639530899000742 0.6697646909832328	0.144361
H	0.8423819341815814 0.6028002367538204 0.7791037018909139	0.148456
H	0.9573789864225776 0.6117300668609962 0.8643169395707813	0.130499
H	0.9689474815262870 0.8369415968068996 0.7685735459117250	0.283546
N	0.8342215977999689 0.1075969211534139 0.7958092437371120	-0.149016
N	0.6080286367985255 0.3912322659703295 0.0595985682264251	-0.252021
N	0.8901445215160797 0.1218363243675821 0.9343035772235103	-0.258504
N	0.5765150656977296 0.3183045788770356 0.1464154086295717	-0.141618
N	0.3342215307999666 0.6075969041534092 0.7958092437371120	-0.148991
N	0.1080286537985233 0.8912323009703289 0.0595985682264251	-0.252031
N	0.3901444875160768 0.6218363583675777 0.9343035772235103	-0.258513
N	0.0765150656977294 0.8183045788770357 0.1464154086295717	-0.141617
N	0.1656813048385828 0.1079028209429238 0.2069241954276179	-0.146585
N	0.3922669226186182 0.3923397667948027 0.9400496697754267	-0.250406
N	0.1098315267982655 0.1221037190170269 0.0678168703734429	-0.259924
N	0.4239543537877442 0.3203730458485329 0.8531107079231884	-0.143462
N	0.6656813048385828 0.6079028039429190 0.2069241954276179	-0.146587
N	0.8922669226186185 0.8923398017948020 0.9400496697754267	-0.250413
N	0.6098315517982640 0.6221037530170227 0.0678168703734429	-0.259916
N	0.9239543537877442 0.8203730458485257 0.8531107079231884	-0.143460
V	0.4973579988131662 0.4658237262050514 0.4805068119536570	2.241938
V	0.9973580008131667 0.9658237952050465 0.4805068119536570	2.241926
Cd	0.5012047615000256 0.5109241431721682 0.9949567080807440	0.880134
Cd	0.0012047615000257 0.0109241471721688 0.9949567080807440	0.880162
	  	
