#======================================================================

# CRYSTAL DATA

#----------------------------------------------------------------------

data_VESTA_phase_1


_pd_phase_name                         VOFFIVE_13_Cd_i
_cell_length_a                         15.79343
_cell_length_b                         15.78110
_cell_length_c                         7.95607
_cell_angle_alpha                      89.52260
_cell_angle_beta                       90.35361
_cell_angle_gamma                      89.39886
_symmetry_space_group_name_H-M         P 1
_symmetry_Int_Tables_number            1

loop_
_symmetry_equiv_pos_as_xyz
   x, y, z

loop_
   _atom_site_label
   _atom_site_fract_x
   _atom_site_fract_y
   _atom_site_fract_z
   _atom_site_charge
C	0.5377389479053452 0.6939635066368063 0.8664450275311778	0.108918
C	0.5427829573243759 0.7820886013046515 0.8668041403378876	-0.151077
C	0.4645693015680900 0.3103734047658736 0.8815545143969628	0.107628
C	0.4612439816728737 0.2222207459158926 0.8802048122313664	-0.144440
C	0.8087452000837627 0.9759767969409406 0.3673278207816592	0.108192
C	0.7207446677355928 0.9731930483098198 0.3607487179268868	-0.137945
C	0.3073532036989918 0.5403652481006012 0.8648257646402346	0.102930
C	0.2191875590016752 0.5454329785928957 0.8638760900633853	-0.153105
C	0.1926657276546995 0.9741054516006641 0.3567899790530251	0.102242
C	0.2807599138565859 0.9722608279135840 0.3536712438243308	-0.137627
C	0.6916953993361595 0.4648694531723396 0.8890557492418127	0.106843
C	0.7797103145481288 0.4617367747236004 0.8844878556446374	-0.142023
C	0.4559434097375536 0.6941590137299257 0.1083653485253608	0.105429
C	0.4538380036944155 0.7821986062499725 0.1123211681997266	-0.140638
C	0.5404551180458527 0.3092560609432419 0.1334800781677138	0.102125
C	0.5442838176310857 0.2210256722685188 0.1359265767974128	-0.153045
C	0.1918304392170009 0.0202260415545528 0.6339912042869068	0.109242
C	0.2797608058903838 0.0217429373057140 0.6407045718787441	-0.142287
C	0.6929161965357887 0.5433263589984103 0.1352655417938503	0.106288
C	0.7809900188582914 0.5474580503640505 0.1342189006180228	-0.152594
C	0.8069665051829796 0.0273993543646062 0.6408400899722013	0.101649
C	0.7189712713937242 0.0287072035565917 0.6434314519209103	-0.139325
C	0.3077746542787495 0.4590742469190333 0.1100383581421908	0.107595
C	0.2197669280995902 0.4569920336242096 0.1128527747275721	-0.145992
C	0.9674165292764855 0.8048675139320960 0.6281114800795518	0.107269
C	0.9660840578519169 0.7168118755015530 0.6334205991784526	-0.139797
C	0.9825050603340471 0.1898242396344265 0.6464485281838309	0.102827
C	0.9805205495174157 0.2778680072246069 0.6488640238055131	-0.138640
C	0.0190442076440468 0.8055713041795550 0.3547584316889636	0.102938
C	0.0218536126828371 0.7174782453231248 0.3508152175323645	-0.136436
C	0.0270762060241549 0.1885709828359338 0.3678053094374258	0.108473
C	0.0284491268223806 0.2766609464389554 0.3603997387659931	-0.139005
C	0.0041300883187617 0.3220872613670909 0.5032860290920413	0.040590
C	0.0022186915481440 0.4150384164264431 0.5004160856705221	0.256534
C	0.4992336378449838 0.8270032300960865 0.9906555513531532	0.056544
C	0.5007221899603996 0.9204440968449962 0.9969765848939396	0.248076
C	0.9947431067955531 0.6721970391901593 0.4925890866707417	0.035105
C	0.9971899527676215 0.5791044313854369 0.4947438668688039	0.248739
C	0.5026798798809017 0.1767777580485965 0.0087751917588832	0.055873
C	0.5021025252452623 0.0831928553291272 0.0091008500498076	0.252476
C	0.6749860495341511 0.0001861267438154 0.5014277482276934	0.037364
C	0.5820320829173302 0.9976675705844885 0.5020116078437027	0.248980
C	0.1746684361577753 0.5020068385637292 0.9885167754631327	0.057821
C	0.0812434973380252 0.5031526165026338 0.9916806681522754	0.248126
C	0.3251372578698369 0.9965934633292036 0.4982600505382114	0.040923
C	0.4180636153317992 0.9957742860106177 0.5012091925894009	0.255562
C	0.8251560800552302 0.5046741299905436 0.0083198108672686	0.054949
C	0.9186034785865991 0.5043621877997939 0.0043760095106494	0.250050
H	0.5667337146969255 0.6561692796650958 0.7673098980547285	0.110046
H	0.5791026346578624 0.8149124531236545 0.7707690883985429	0.122711
H	0.4378347260335076 0.3486619861738841 0.7786243866174241	0.111567
H	0.4291887845384202 0.1890869723129702 0.7790012242777093	0.119061
H	0.8473001032614128 0.9574586586110321 0.2598341103302288	0.111749
H	0.6885741443293476 0.9509122749951713 0.2482049014333539	0.119285
H	0.3449671231190661 0.5691446908204231 0.7648934104024511	0.114330
H	0.1861131824508166 0.5816730452333293 0.7660805439087194	0.122774
H	0.1554523768368227 0.9572402957780983 0.2459688198147039	0.109008
H	0.3139439840232011 0.9534352399016959 0.2400466594255634	0.116410
H	0.6528698223060794 0.4373749758362465 0.7899296225883086	0.113646
H	0.8126037333936555 0.4288385499483967 0.7839824848484749	0.118158
H	0.4259217550918914 0.6560741119009477 0.2059525070560345	0.109480
H	0.4206658406594039 0.8157888681499075 0.2114861535449933	0.116244
H	0.5677738085423552 0.3464958179273936 0.2353041400575839	0.109963
H	0.5776339427216497 0.1876875833063714 0.2372855633100331	0.122506
H	0.1539235003056384 0.0375506145990426 0.7430726060891002	0.105578
H	0.3122832823296492 0.0407094725430348 0.7552732430305618	0.119094
H	0.6559310517602849 0.5716771718077944 0.2362952821426076	0.106753
H	0.8144093664318006 0.5820201890302900 0.2317703147518479	0.121921
H	0.8436569288820334 0.0465716023775069 0.7507501563113448	0.103510
H	0.6853924774576823 0.0498753638192361 0.7548459820211397	0.119403
H	0.3457607453744626 0.4292955486354188 0.2098152003368531	0.106160
H	0.1863901690150433 0.4238606342115849 0.2126309364113541	0.117232
H	0.9483479505961756 0.8423153632188181 0.7366341980654845	0.107577
H	0.9448149685616367 0.6836259744867837 0.7458568511210806	0.118323
H	0.9657721084466122 0.1528882515850623 0.7578912016162509	0.101532
H	0.9617090328937570 0.3112634891897657 0.7621216973111661	0.118290
H	0.0379604500866649 0.8433407757760429 0.2458296242675017	0.108532
H	0.0443857083437802 0.6850176221166587 0.2391953429814099	0.118148
H	0.0430589258152258 0.1501236241183572 0.2586477390317825	0.112076
H	0.0461635012920711 0.3092517685092286 0.2447501566749142	0.118583
N	0.9511215993337596 0.5383017866115628 0.6125888028816937	-0.136332
N	0.4259176905318179 0.0450420426444381 0.0088131234951160	-0.151015
N	0.5408944586412429 0.0431733747099095 0.6202125807996910	-0.136725
N	0.9583016789465774 0.4281564205398914 0.0014919714697988	-0.148030
N	0.0459323592261891 0.5392180351242787 0.3800275283767116	-0.135454
N	0.5775401216626600 0.0421404589274915 0.0114404321969480	-0.150298
N	0.9579357030422410 0.5799284431371928 0.0012821587377302	-0.149405
N	0.5426444886649446 0.9480371493563000 0.3886294213047151	-0.135672
N	0.0492648392840804 0.4558057853920277 0.3843950216744084	-0.132811
N	0.5768597119176189 0.9585468260882873 0.0008795596416907	-0.146993
N	0.4592455435148054 0.9467212396763104 0.3890441283627484	-0.132185
N	0.0414560163565553 0.5793146568439161 0.9907249799175178	-0.146961
N	0.9529332348235178 0.4549373406896174 0.6141367721138004	-0.131377
N	0.4253165538017000 0.9613171660287647 0.0060495923304222	-0.146080
N	0.0419852316540438 0.4275490290195337 0.9981296688412405	-0.149548
N	0.4576172881800856 0.0425742542273548 0.6190703308944202	-0.133714
N	0.0047583814881420 0.1464142808050356 0.5083491977874356	-0.226570
N	0.4962242812840468 0.6511888227950589 0.9868147787921084	-0.227115
N	0.9932093460193686 0.8481271384932990 0.4914187485373590	-0.224777
N	0.5020608136964877 0.3526155343095341 0.0076217581455880	-0.231682
N	0.8506665610742495 0.0017616807754419 0.5053479711985021	-0.226466
N	0.3503904162459882 0.4988621697973073 0.9870991148389361	-0.228937
N	0.1494029960697461 0.9969117505352458 0.4947686871941400	-0.225320
N	0.6494670645817467 0.5036586096627942 0.0137494905903050	-0.230099
Cd	-0.0001200371234388 0.9973402787258493 0.5020931007315471	0.860932
Cd	0.5000031204596121 0.5018816211112852 0.0010036248285861	0.859936
V	0.0009839035602053 0.9951880534165569 0.9838056415246483	2.273587
V	0.4985086736064640 0.5036836751400110 0.4834799553869833	2.286144
F	0.9892979898452321 0.0107531513897399 0.2295187329274127	-0.625387
F	0.5222592591975673 0.4884915615374650 0.7298111066968805	-0.629854
F	0.0834557725254427 0.0774164694903892 0.0028948577910596	-0.585388
F	0.5818060822793305 0.5857848583153744 0.4957547669103451	-0.595574
F	0.9171417052669163 0.9153954938871660 0.0132513112176546	-0.583719
F	0.4191535942912976 0.4197866651229696 0.5206492306709709	-0.595250
F	0.9186765399675508 0.0802657167899882 0.9694997071104066	-0.579304
F	0.4203292446476833 0.5847285469066107 0.5528101624848250	-0.592574
F	0.0819915875819849 0.9137540637778168 0.0442432335874409	-0.578668
F	0.5827043388007122 0.4214539343687282 0.4611924635421593	-0.592359
O	0.0099026020457131 0.9830179794950049 0.7785149027327510	-0.832738
O	0.4796051104937941 0.5143836254857374 0.2791212175737541	-0.840194
	  	
