#======================================================================

# CRYSTAL DATA

#----------------------------------------------------------------------

data_VESTA_phase_1


_pd_phase_name                         VOFFIVE_15_Cd_i
_cell_length_a                         30.30474
_cell_length_b                         29.68681
_cell_length_c                         8.12169
_cell_angle_alpha                      90
_cell_angle_beta                       90
_cell_angle_gamma                      90
_symmetry_space_group_name_H-M         P 1
_symmetry_Int_Tables_number            1

loop_
_symmetry_equiv_pos_as_xyz
   x, y, z

loop_
   _atom_site_label
   _atom_site_fract_x
   _atom_site_fract_y
   _atom_site_fract_z
   _atom_site_charge
C	0.9299669297013878 0.0991546624859427 0.8926490970702332	0.104627
C	0.8985936894300902 0.0651113031294897 0.8983498260496798	-0.167415
C	0.7695513609876152 0.9361329364664974 0.9001822606204904	-0.113486
C	0.7360436727062938 0.9044110734750351 0.8999616039965680	-0.115796
C	0.5715577677852760 0.7450816660847610 0.8925983200687576	0.101163
C	0.6047321042849971 0.7772884030010139 0.8980401435769843	-0.170047
C	0.4299668657013828 0.5991546454859450 0.8926490970702332	0.104627
C	0.3985936574300871 0.5651112831294881 0.8983498260496798	-0.167416
C	0.2695513609876150 0.4361329044664951 0.9001822606204904	-0.113486
C	0.2360436727062936 0.4044110734750355 0.8999616039965680	-0.115796
C	0.0715578077852722 0.2450816820847625 0.8925983200687576	0.101163
C	0.1047320962850035 0.2772883860010164 0.8980401435769843	-0.170048
C	0.0700331142986157 0.9008453545140550 0.3926490970702335	0.104628
C	0.1014063425699127 0.9348887168705119 0.3983498260496799	-0.167416
C	0.2304486710123804 0.0638671045335025 0.4001822606204900	-0.113486
C	0.2639563432937078 0.0955889185249638 0.3999616039965680	-0.115796
C	0.4284422002147285 0.2549183339152388 0.3925982890687589	0.101163
C	0.3952678957150029 0.2227115969989859 0.3980401435769846	-0.170047
C	0.5700330702986122 0.4008453215140559 0.3926490970702335	0.104628
C	0.6014063105699098 0.4348886848705094 0.3983498260496799	-0.167416
C	0.7304486390123848 0.5638670635335026 0.4001822606204900	-0.113486
C	0.7639563272937062 0.5955889265249649 0.3999616039965680	-0.115796
C	0.9284422322147240 0.7549183339152390 0.3925982890687589	0.101163
C	0.8952678957150029 0.7227115969989861 0.3980401435769846	-0.170047
C	0.0698901606943395 0.0993079193414020 0.6062256192495019	0.103619
C	0.1012887662731607 0.0652309193333913 0.6004800359551893	-0.165436
C	0.2304510935999504 0.9361315466049459 0.5998166818985514	-0.113558
C	0.2639540719650176 0.9044132029290346 0.6000352962603909	-0.115761
C	0.4285883558451168 0.7449210860246575 0.6064053457566480	0.102443
C	0.3953855016106483 0.7771593977452013 0.6008168585367756	-0.169702
C	0.5698901166943361 0.5993079023414042 0.6062256192495019	0.103619
C	0.6012887342731583 0.5652308993333894 0.6004800359551893	-0.165436
C	0.7304510615999549 0.4361315146049430 0.5998166818985514	-0.113558
C	0.7639540559650163 0.4044132029290347 0.6000352962603909	-0.115761
C	0.9285883878451123 0.2449211020246592 0.6064053457566480	0.102443
C	0.8953855016106486 0.2771593807452034 0.6008168585367756	-0.169702
C	0.9301098833056639 0.9006920976585958 0.1062256432494966	0.103621
C	0.8987112657268417 0.9347691006666106 0.1004800119551943	-0.165436
C	0.7695489384000451 0.0638684943950541 0.0998167208985511	-0.113558
C	0.7360459440349837 0.0955867890709647 0.1000353192603892	-0.115761
C	0.5714116121548877 0.2550789139753419 0.1064053377566475	0.102442
C	0.6046144983893514 0.2228406022547988 0.1008168745367772	-0.169702
C	0.4301098193056588 0.4006920646585967 0.1062256432494966	0.103621
C	0.3987112337268393 0.4347690686666077 0.1004800119551943	-0.165436
C	0.2695489384000451 0.5638684533950541 0.0998167208985511	-0.113558
C	0.2360459440349837 0.5955867970709654 0.1000353192603892	-0.115761
C	0.0714116521548837 0.7550789139753425 0.1064053377566475	0.102442
C	0.1046144903893581 0.7228406022547987 0.1008168745367772	-0.169703
C	0.0698901606943395 0.9006920976585958 0.1062256432494966	0.103621
C	0.1012887662731607 0.9347691006666106 0.1004800119551943	-0.165437
C	0.2304510935999504 0.0638684943950541 0.0998167208985511	-0.113558
C	0.2639540719650176 0.0955867890709647 0.1000353192603892	-0.115762
C	0.4285883558451168 0.2550789139753419 0.1064053377566475	0.102443
C	0.3953855016106483 0.2228406022547988 0.1008168745367772	-0.169702
C	0.5698901166943361 0.4006920646585967 0.1062256432494966	0.103621
C	0.6012887342731583 0.4347690686666077 0.1004800119551943	-0.165437
C	0.7304510615999549 0.5638684533950541 0.0998167208985511	-0.113558
C	0.7639540559650163 0.5955867970709654 0.1000353192603892	-0.115761
C	0.9285883878451123 0.7550789139753425 0.1064053377566475	0.102443
C	0.8953855016106486 0.7228406022547988 0.1008168745367772	-0.169702
C	0.9301098833056639 0.0993079193414020 0.6062256192495019	0.103619
C	0.8987112657268417 0.0652309193333913 0.6004800359551893	-0.165436
C	0.7695489384000451 0.9361315466049459 0.5998166818985514	-0.113558
C	0.7360459440349837 0.9044132029290346 0.6000352962603909	-0.115761
C	0.5714116121548877 0.7449210860246575 0.6064053457566480	0.102443
C	0.6046144983893514 0.7771593977452013 0.6008168585367756	-0.169702
C	0.4301098193056588 0.5993079023414042 0.6062256192495019	0.103619
C	0.3987112337268393 0.5652308993333894 0.6004800359551893	-0.165436
C	0.2695489384000451 0.4361315146049430 0.5998166818985514	-0.113558
C	0.2360459440349837 0.4044132029290347 0.6000352962603909	-0.115761
C	0.0714116521548837 0.2449211020246592 0.6064053457566480	0.102443
C	0.1046144903893581 0.2771593807452034 0.6008168585367756	-0.169702
C	0.9299669297013878 0.9008453545140550 0.3926490970702335	0.104628
C	0.8985936894300902 0.9348887168705119 0.3983498260496799	-0.167415
C	0.7695513609876152 0.0638671045335025 0.4001822606204900	-0.113485
C	0.7360436727062938 0.0955889185249638 0.3999616039965680	-0.115796
C	0.5715577677852760 0.2549183339152388 0.3925982890687589	0.101163
C	0.6047321042849971 0.2227115969989859 0.3980401435769846	-0.170047
C	0.4299668657013828 0.4008453215140559 0.3926490970702335	0.104628
C	0.3985936574300871 0.4348886848705094 0.3983498260496799	-0.167416
C	0.2695513609876150 0.5638670635335026 0.4001822606204900	-0.113485
C	0.2360436727062936 0.5955889265249649 0.3999616039965680	-0.115795
C	0.0715578077852722 0.7549183339152390 0.3925982890687589	0.101163
C	0.1047320962850035 0.7227115969989861 0.3980401435769846	-0.170047
C	0.0700331142986157 0.0991546624859427 0.8926490970702332	0.104627
C	0.1014063425699127 0.0651113031294897 0.8983498260496798	-0.167415
C	0.2304486710123804 0.9361329364664974 0.9001822606204904	-0.113486
C	0.2639563432937078 0.9044110734750351 0.8999616039965680	-0.115796
C	0.4284422002147285 0.7450816660847610 0.8925983200687576	0.101164
C	0.3952678957150029 0.7772884030010139 0.8980401435769843	-0.170047
C	0.5700330702986122 0.5991546454859450 0.8926490970702332	0.104627
C	0.6014063105699098 0.5651112831294881 0.8983498260496798	-0.167415
C	0.7304486390123848 0.4361329044664951 0.9001822606204904	-0.113486
C	0.7639563272937062 0.4044110734750355 0.8999616039965680	-0.115796
C	0.9284422322147240 0.2450816820847625 0.8925983200687576	0.101164
C	0.8952678957150029 0.2772883860010164 0.8980401435769843	-0.170047
C	0.6557990655666348 0.8269627761326963 0.7492298191621737	-0.105074
C	0.8821613916149492 0.0475999428055276 0.7492390498726665	0.161329
C	0.8205950446850198 0.9850439631539063 0.7498203475786003	-0.097149
C	0.6220534346898698 0.7941265902634520 0.7492297160603322	0.169476
C	0.7867628506849258 0.9524325925868085 0.7499957800343950	0.126009
C	0.7187785773519633 0.8879721619438845 0.7499950688528382	0.136692
C	0.6848972272845041 0.8553638009304630 0.7498196656501090	-0.098866
C	0.8494864317857411 0.0136807933846682 0.7492533279861666	-0.108170
C	0.1557990175666380 0.3269628091326955 0.7492298191621737	-0.105073
C	0.3821613596149461 0.5475999178055292 0.7492390498726665	0.161329
C	0.3205950766850222 0.4850439961539125 0.7498203475786003	-0.097149
C	0.1220534106898679 0.2941265902634519 0.7492297160603322	0.169476
C	0.2867628826849216 0.4524325925868081 0.7499957800343950	0.126009
C	0.2187785453519608 0.3879721949438833 0.7499950688528382	0.136692
C	0.1848972432845051 0.3553638009304634 0.7498196656501090	-0.098866
C	0.3494864637857366 0.5136808293846709 0.7492533279861666	-0.108171
C	0.3442009984333636 0.1730372068672988 0.2492298031621724	-0.105073
C	0.1178386243850525 0.9524000821944708 0.2492390338726647	0.161330
C	0.1794049553149804 0.0149560178460887 0.2498203315785989	-0.097148
C	0.3779465973101329 0.2058734097365480 0.2492297000603310	0.169475
C	0.2132371333150797 0.0475673904131867 0.2499957640343938	0.126008
C	0.2812214546480395 0.1120278210561181 0.2499950528528365	0.136692
C	0.3151027727154966 0.1446361990695368 0.2498196496501081	-0.098866
C	0.1505135522142576 0.9863191706153291 0.2492533119861650	-0.108172
C	0.8442009344333652 0.6730372238673037 0.2492298031621724	-0.105073
C	0.6178386083850508 0.4524000821944709 0.2492390338726647	0.161330
C	0.6794049553149802 0.5149560368460937 0.2498203315785989	-0.097148
C	0.8779465653101302 0.7058734097365480 0.2492297000603310	0.169475
C	0.7132371493150742 0.5475674074131915 0.2499957640343938	0.126008
C	0.7812214226480367 0.6120278380561155 0.2499950528528365	0.136692
C	0.8151027727154959 0.6446361990695370 0.2498196496501081	-0.098867
C	0.6505135682142589 0.4863192036153278 0.2492533119861650	-0.108171
C	0.3442009984333636 0.8269627761326963 0.7492298191621737	-0.105074
C	0.1178386243850525 0.0475999428055276 0.7492390498726665	0.161329
C	0.1794049553149804 0.9850439631539063 0.7498203475786003	-0.097149
C	0.3779465973101329 0.7941265902634520 0.7492297160603322	0.169476
C	0.2132371333150797 0.9524325925868085 0.7499957800343950	0.126009
C	0.2812214546480395 0.8879721619438845 0.7499950688528382	0.136691
C	0.3151027727154966 0.8553638009304630 0.7498196656501090	-0.098865
C	0.1505135522142576 0.0136807933846682 0.7492533279861666	-0.108170
C	0.8442009344333652 0.3269628091326955 0.7492298191621737	-0.105073
C	0.6178386083850508 0.5475999178055292 0.7492390498726665	0.161329
C	0.6794049553149802 0.4850439961539125 0.7498203475786003	-0.097149
C	0.8779465653101302 0.2941265902634519 0.7492297160603322	0.169476
C	0.7132371493150742 0.4524325925868081 0.7499957800343950	0.126009
C	0.7812214226480367 0.3879721949438833 0.7499950688528382	0.136692
C	0.8151027727154959 0.3553638009304634 0.7498196656501090	-0.098866
C	0.6505135682142589 0.5136808293846709 0.7492533279861666	-0.108170
C	0.6557990655666348 0.1730372068672988 0.2492298031621724	-0.105073
C	0.8821613916149492 0.9524000821944708 0.2492390338726647	0.161330
C	0.8205950446850198 0.0149560178460887 0.2498203315785989	-0.097148
C	0.6220534346898698 0.2058734097365480 0.2492297000603310	0.169476
C	0.7867628506849258 0.0475673904131867 0.2499957640343938	0.126008
C	0.7187785773519633 0.1120278210561181 0.2499950528528365	0.136692
C	0.6848972272845041 0.1446361990695368 0.2498196496501081	-0.098867
C	0.8494864317857411 0.9863191706153291 0.2492533119861650	-0.108172
C	0.1557990175666380 0.6730372238673037 0.2492298031621724	-0.105073
C	0.3821613596149461 0.4524000821944709 0.2492390338726647	0.161330
C	0.3205950766850222 0.5149560368460937 0.2498203315785989	-0.097148
C	0.1220534106898679 0.7058734097365480 0.2492297000603310	0.169475
C	0.2867628826849216 0.5475674074131915 0.2499957640343938	0.126008
C	0.2187785453519608 0.6120278380561155 0.2499950528528365	0.136692
C	0.1848972432845051 0.6446361990695370 0.2498196496501081	-0.098866
C	0.3494864637857366 0.4863192036153278 0.2492533119861650	-0.108172
H	0.9433911542194200 0.1137113005671614 0.0053991440022062	0.098779
H	0.8868399672889659 0.0522711204348301 0.0160084683266513	0.119491
H	0.7830279344185794 0.9488350491829285 0.0156164261120237	0.106847
H	0.7226398689386940 0.8917133821355161 0.0153778589486518	0.114811
H	0.5573781722929596 0.7313312100335626 0.0054068453388965	0.097693
H	0.6171796687319548 0.7892881368156944 0.0157577870510474	0.124915
H	0.4433912192194148 0.6137112755671632 0.0053991440022062	0.098779
H	0.3868399672889656 0.5522710874348311 0.0160084683266513	0.119491
H	0.2830279024185839 0.4488350821829280 0.0156164261120237	0.106847
H	0.2226398689386938 0.3917133491355170 0.0153778589486518	0.114811
H	0.0573781242929625 0.2313312260335638 0.0054068453388965	0.097693
H	0.1171797167319590 0.2892880708156965 0.0157577870510474	0.124915
H	0.0566087977805831 0.8862887244328368 0.5053991290022090	0.098778
H	0.1131600327110342 0.9477289125651689 0.5160084683266510	0.119492
H	0.2169720975814161 0.0511649218170724 0.5156164261120243	0.106846
H	0.2773601310613065 0.1082866588644837 0.5153778279486460	0.114812
H	0.4426218927070353 0.2686687739664360 0.5054068533388970	0.097694
H	0.3828202672680467 0.2107119121843055 0.5157578140510535	0.124914
H	0.5566088457805800 0.3862887244328371 0.5053991290022090	0.098778
H	0.6131600327110341 0.4477288795651699 0.5160084683266510	0.119492
H	0.7169720655814206 0.5511649178170723 0.5156164261120243	0.106846
H	0.7773601310613060 0.6082866178644839 0.5153778279486460	0.114812
H	0.9426218277070404 0.7686687899664374 0.5054068533388970	0.097694
H	0.8828203312680452 0.7107118631843056 0.5157578140510535	0.124914
H	0.0563187244079062 0.1140027645911739 0.4938905073870998	0.108069
H	0.1130453867243107 0.0523985596780347 0.4827930426520876	0.119141
H	0.2169727523445306 0.9488393940460635 0.4843920495897542	0.106847
H	0.2773625513028332 0.8917120667637982 0.4846329182967246	0.114803
H	0.4429064917405089 0.7310098092173396 0.4940183016190132	0.106398
H	0.3829533022459168 0.7891469057176915 0.4830316228801010	0.124868
H	0.5563187724079033 0.6140027395911750 0.4938905073870998	0.108069
H	0.6130453867243111 0.5523985266780359 0.4827930426520876	0.119141
H	0.7169727203445352 0.4488394270460627 0.4843920495897542	0.106847
H	0.7773625513028335 0.3917120337637988 0.4846329182967246	0.114803
H	0.9429064267405143 0.2310098252173406 0.4940183016190132	0.106398
H	0.8829533662459151 0.2891468397176934 0.4830316228801010	0.124868
H	0.9436812275920967 0.8859972604088250 0.9938904763871008	0.108068
H	0.8869546132756889 0.9476014733219641 0.9827930116520887	0.119142
H	0.7830272796554648 0.0511605769539377 0.9843920175897513	0.106846
H	0.7226374486971665 0.1082879742362017 0.9846329182967246	0.114804
H	0.5570935732594857 0.2689901747826595 0.9940183016190129	0.106398
H	0.6170466337540849 0.2108531432823088 0.9830316228801015	0.124867
H	0.4436812925920919 0.3859972604088244 0.9938904763871008	0.108068
H	0.3869546132756894 0.4476014403219653 0.9827930116520887	0.119142
H	0.2830272476554691 0.5511605729539373 0.9843920175897513	0.106846
H	0.2226374486971668 0.6082879332362018 0.9846329182967246	0.114803
H	0.0570935252594891 0.7689901907826604 0.9940183016190129	0.106398
H	0.1170466817540890 0.7108530942823085 0.9830316228801015	0.124867
H	0.0563187244079062 0.8859972604088250 0.9938904763871008	0.108068
H	0.1130453867243107 0.9476014733219641 0.9827930116520887	0.119142
H	0.2169727523445306 0.0511605769539377 0.9843920175897513	0.106846
H	0.2773625513028332 0.1082879742362017 0.9846329182967246	0.114804
H	0.4429064917405089 0.2689901747826595 0.9940183016190129	0.106398
H	0.3829533022459168 0.2108531432823088 0.9830316228801015	0.124867
H	0.5563187724079033 0.3859972604088244 0.9938904763871008	0.108068
H	0.6130453867243111 0.4476014403219653 0.9827930116520887	0.119142
H	0.7169727203445352 0.5511605729539373 0.9843920175897513	0.106846
H	0.7773625513028335 0.6082879332362018 0.9846329182967246	0.114804
H	0.9429064267405143 0.7689901907826604 0.9940183016190129	0.106398
H	0.8829533662459151 0.7108530942823085 0.9830316228801015	0.124867
H	0.9436812275920967 0.1140027645911739 0.4938905073870998	0.108069
H	0.8869546132756889 0.0523985596780347 0.4827930426520877	0.119141
H	0.7830272796554648 0.9488393940460635 0.4843920495897542	0.106847
H	0.7226374486971665 0.8917120667637982 0.4846329182967246	0.114803
H	0.5570935732594857 0.7310098092173396 0.4940183016190132	0.106398
H	0.6170466337540849 0.7891469057176915 0.4830316228801010	0.124868
H	0.4436812925920919 0.6140027395911750 0.4938905073870998	0.108069
H	0.3869546132756894 0.5523985266780359 0.4827930426520877	0.119141
H	0.2830272476554691 0.4488394270460627 0.4843920495897542	0.106847
H	0.2226374486971668 0.3917120337637988 0.4846329182967246	0.114803
H	0.0570935252594891 0.2310098252173406 0.4940183016190132	0.106398
H	0.1170466817540890 0.2891468397176934 0.4830316228801010	0.124868
H	0.9433911542194200 0.8862887244328368 0.5053991290022090	0.098778
H	0.8868399672889659 0.9477289125651689 0.5160084683266510	0.119492
H	0.7830279344185794 0.0511649218170724 0.5156164261120243	0.106846
H	0.7226398689386940 0.1082866588644837 0.5153778279486460	0.114812
H	0.5573781722929596 0.2686687739664360 0.5054068533388970	0.097694
H	0.6171796687319548 0.2107119121843055 0.5157578140510535	0.124915
H	0.4433912192194148 0.3862887244328371 0.5053991290022090	0.098778
H	0.3868399672889657 0.4477288795651699 0.5160084683266510	0.119492
H	0.2830279024185839 0.5511649178170723 0.5156164261120243	0.106846
H	0.2226398689386938 0.6082866178644839 0.5153778279486460	0.114812
H	0.0573781242929625 0.7686687899664374 0.5054068533388970	0.097694
H	0.1171797167319590 0.7107118631843056 0.5157578140510535	0.124915
H	0.0566087977805831 0.1137113005671614 0.0053991440022062	0.098779
H	0.1131600327110342 0.0522711204348301 0.0160084683266513	0.119491
H	0.2169720975814161 0.9488350491829285 0.0156164261120237	0.106847
H	0.2773601310613065 0.8917133821355161 0.0153778589486518	0.114812
H	0.4426218927070353 0.7313312100335626 0.0054068453388965	0.097693
H	0.3828202672680467 0.7892881368156944 0.0157577870510474	0.124916
H	0.5566088457805800 0.6137112755671632 0.0053991440022062	0.098779
H	0.6131600327110341 0.5522710874348311 0.0160084683266513	0.119491
H	0.7169720655814206 0.4488350821829280 0.0156164261120237	0.106847
H	0.7773601310613060 0.3917133491355170 0.0153778589486518	0.114812
H	0.9426218277070404 0.2313312260335638 0.0054068453388965	0.097693
H	0.8828203312680452 0.2892880708156965 0.0157577870510474	0.124916
Cd	0.5000000000000000 0.6729952105283661 0.7513132142066291	0.864044
Cd	0.0000000000000000 0.1729951775283670 0.7513132142066291	0.864044
Cd	0.5000000000000000 0.3270048224716328 0.2513131982066281	0.864044
Cd	0.0000000000000000 0.8270047894716339 0.2513131982066281	0.864044
V	0.5000000000000000 0.6728468359514203 0.2328936694645078	2.274976
V	0.0000000000000000 0.1728468849514208 0.2328936694645078	2.274976
V	0.5000000000000000 0.3271530990485849 0.7328936854645086	2.274976
V	0.0000000000000000 0.8271531640485797 0.7328936854645086	2.274976
F	0.5000000000000000 0.7349459293810663 0.2572506210028602	-0.589175
F	0.5000000000000000 0.6107890666839145 0.2581458438414024	-0.586720
F	0.0000000000000000 0.2349458963810676 0.2572506210028602	-0.589175
F	0.0000000000000000 0.1107890746839152 0.2581458438414024	-0.586720
F	0.5000000000000000 0.2650540876189312 0.7572506370028613	-0.589177
F	0.5000000000000000 0.3892109003160864 0.7581458598414036	-0.586718
F	0.0000000000000000 0.7650540706189337 0.7572506370028613	-0.589177
F	0.0000000000000000 0.8892109333160855 0.7581458598414036	-0.586718
F	0.5608348224937241 0.6729165339836115 0.2576730107293029	-0.589344
F	0.0608348144937234 0.1729165169836137 0.2576730107293029	-0.589344
F	0.4391651775062758 0.3270834660163887 0.7576730267293041	-0.589344
F	0.9391651775062759 0.8270834660163885 0.7576730267293041	-0.589344
F	0.4391651775062758 0.6729165339836115 0.2576730107293029	-0.589344
F	0.9391651775062759 0.1729165169836137 0.2576730107293029	-0.589344
F	0.5608348224937241 0.3270834660163887 0.7576730267293041	-0.589344
F	0.0608348144937234 0.8270834660163885 0.7576730267293041	-0.589344
F	0.5000000000000000 0.6729816105622208 0.4804789948386013	-0.624528
F	0.0000000000000000 0.1729816105622210 0.4804789948386013	-0.624528
F	0.5000000000000000 0.3270183894377789 0.9804790568385993	-0.624528
F	0.0000000000000000 0.8270183894377792 0.9804790568385993	-0.624528
O	0.5000000000000000 0.6727540016755894 0.0286599945318807	-0.828469
O	0.0000000000000000 0.1727540016755894 0.0286599945318807	-0.828469
O	0.5000000000000000 0.3272459983244104 0.5286599755318830	-0.828469
O	0.0000000000000000 0.8272459983244106 0.5286599755318830	-0.828469
N	0.5552070086108601 0.7291353782831670 0.7497803380734048	-0.237121
N	0.9453542967163858 0.1160102744295815 0.7497067558130515	-0.236160
N	0.0552070486108564 0.2291353942831683 0.7497803380734048	-0.237120
N	0.4453542647163900 0.6160102504295795 0.7497067558130515	-0.236159
N	0.4447929593891444 0.2708646057168316 0.2497803220734034	-0.237118
N	0.0546457312836094 0.8839897495704205 0.2497067398130502	-0.236163
N	0.9447929913891399 0.7708646217168330 0.2497803220734034	-0.237119
N	0.5546457032836142 0.3839897165704214 0.2497067398130502	-0.236163
N	0.4447929593891444 0.7291353782831670 0.7497803380734048	-0.237121
N	0.0546457312836094 0.1160102744295815 0.7497067558130515	-0.236160
N	0.9447929913891399 0.2291353942831683 0.7497803380734048	-0.237121
N	0.5546457032836142 0.6160102504295795 0.7497067558130515	-0.236160
N	0.5552070086108601 0.2708646057168316 0.2497803220734034	-0.237118
N	0.9453542967163858 0.8839897495704205 0.2497067398130502	-0.236163
N	0.0552070486108564 0.7708646217168330 0.2497803220734034	-0.237118
N	0.4453542647163900 0.3839897165704214 0.2497067398130502	-0.236163
	  	
