#======================================================================

# CRYSTAL DATA

#----------------------------------------------------------------------

data_VESTA_phase_1


_pd_phase_name                         VOFFIVE_4_Ni_i
_cell_length_a                         23.01678
_cell_length_b                         20.05089
_cell_length_c                         9.68537
_cell_angle_alpha                      90
_cell_angle_beta                       90
_cell_angle_gamma                      90
_symmetry_space_group_name_H-M         P 1
_symmetry_Int_Tables_number            1

loop_
_symmetry_equiv_pos_as_xyz
   x, y, z

loop_
   _atom_site_label
   _atom_site_fract_x
   _atom_site_fract_y
   _atom_site_fract_z
   _atom_site_charge
C	0.4203662600348220 0.5993503593139701 0.6295922883396947	0.090561
C	0.3760405388688021 0.5524973516265687 0.6274456824780880	-0.164648
C	0.2781644046716198 0.4486049323063099 0.6267538771592280	-0.114629
C	0.2309839852485156 0.4055180799835614 0.6260931752414072	-0.111750
C	0.1276155279615236 0.3174073886164550 0.6259344876539312	-0.162408
C	0.0803848628842551 0.2744271818407817 0.6290569793944516	0.083211
C	0.9203663020348180 0.0993503593139699 0.6295922883396947	0.090569
C	0.8760405808688061 0.0524973456265685 0.6274456824780880	-0.164673
C	0.7781644256716178 0.9486049783063137 0.6267538771592280	-0.114637
C	0.7309840052485168 0.9055181259835576 0.6260931752414072	-0.111751
C	0.6276155279615235 0.8174073886164552 0.6259344876539312	-0.162409
C	0.5803848578842515 0.7744272288407823 0.6290569793944516	0.083211
C	0.5796337399651784 0.4006496406860302 0.1295922493396951	0.090559
C	0.6239594611311974 0.4475026483734309 0.1274456664780867	-0.164646
C	0.7218355743283822 0.5513950676936901 0.1267539081592275	-0.114638
C	0.7690159947514832 0.5944819200164391 0.1260932212414041	-0.111757
C	0.8723845130384763 0.6825925643835444 0.1259345026539360	-0.162410
C	0.9196151841157448 0.7255727711592177 0.1290569953944530	0.083289
C	0.0796337449651820 0.9006495946860332 0.1295922493396951	0.090568
C	0.1239594401311923 0.9475026023734346 0.1274456664780867	-0.164670
C	0.2218355743283820 0.0513950626936863 0.1267539081592275	-0.114637
C	0.2690160147514844 0.0944819080164448 0.1260932212414041	-0.111755
C	0.3723844720384765 0.1825926113835447 0.1259345026539360	-0.162410
C	0.4196151421157488 0.2255727951592199 0.1290569953944530	0.083286
C	0.5801460584245126 0.5989097087209432 0.8682705647785572	0.087166
C	0.6243261839277782 0.5520385517045536 0.8693304772453776	-0.163244
C	0.7214864790475168 0.4486258195572956 0.8695030332928296	-0.113104
C	0.7687346428457358 0.4056448460862048 0.8710464525020001	-0.111294
C	0.8721776337907171 0.3178581816789381 0.8731607500225111	-0.166364
C	0.9193820833066605 0.2749725595841670 0.8704973808122894	0.080980
C	0.0801460634245166 0.0989097087209434 0.8682705647785572	0.087165
C	0.1243261629277727 0.0520385457045528 0.8693304772453776	-0.163239
C	0.2214864790475172 0.9486258655572996 0.8695030332928296	-0.113102
C	0.2687346628457373 0.9056448920862017 0.8710464525020001	-0.111294
C	0.3721775927907175 0.8178581816789381 0.8731607500225111	-0.166374
C	0.4193820413066641 0.7749726065841678 0.8704973808122894	0.080985
C	0.4198539415754873 0.4010902912790564 0.3682705957785563	0.087179
C	0.3756738160722218 0.4479614482954468 0.3693305392453752	-0.163239
C	0.2785134999524846 0.5513741804427043 0.3695030332928295	-0.113131
C	0.2312653371542626 0.5943551539137950 0.3710464215020008	-0.111209
C	0.1278224072092826 0.6821417713210616 0.3731606880225132	-0.166373
C	0.0806179636933397 0.7250273934158322 0.3704973188122909	0.080982
C	0.9198539835754838 0.9010902452790601 0.3682705957785563	0.087177
C	0.8756738580722253 0.9479614022954497 0.3693305392453752	-0.163232
C	0.7785135209524832 0.0513741754427004 0.3695030332928295	-0.113102
C	0.7312653571542642 0.0943551419138012 0.3710464215020008	-0.111295
C	0.6278224072092827 0.1821418183210620 0.3731606880225132	-0.166372
C	0.5806179586933359 0.2250274174158347 0.3704973188122909	0.080981
C	0.5801460584245126 0.4010902912790564 0.3682705957785563	0.087183
C	0.6243261839277782 0.4479614482954468 0.3693305392453752	-0.163238
C	0.7214864790475168 0.5513741804427043 0.3695030332928295	-0.113105
C	0.7687346428457358 0.5943551539137950 0.3710464215020008	-0.111293
C	0.8721776337907171 0.6821417713210616 0.3731606880225132	-0.166368
C	0.9193820833066605 0.7250273934158322 0.3704973188122909	0.080984
C	0.0801460634245167 0.9010902452790601 0.3682705957785563	0.087181
C	0.1243261629277727 0.9479614022954497 0.3693305392453752	-0.163233
C	0.2214864790475172 0.0513741754427004 0.3695030332928295	-0.113103
C	0.2687346628457373 0.0943551419138012 0.3710464215020008	-0.111293
C	0.3721775927907175 0.1821418183210620 0.3731606880225132	-0.166375
C	0.4193820413066641 0.2250274174158347 0.3704973188122909	0.080988
C	0.4198539415754873 0.5989097087209432 0.8682705647785572	0.087171
C	0.3756738160722218 0.5520385517045536 0.8693304772453776	-0.163246
C	0.2785134999524846 0.4486258195572956 0.8695030332928295	-0.113132
C	0.2312653371542626 0.4056448460862048 0.8710464525020001	-0.111208
C	0.1278224072092826 0.3178581816789381 0.8731607500225111	-0.166375
C	0.0806179636933397 0.2749725595841670 0.8704973808122894	0.080984
C	0.9198539835754838 0.0989097087209434 0.8682705647785572	0.087168
C	0.8756738580722253 0.0520385457045528 0.8693304772453776	-0.163239
C	0.7785135209524832 0.9486258655572996 0.8695030332928295	-0.113102
C	0.7312653571542642 0.9056448920862017 0.8710464525020001	-0.111293
C	0.6278224072092827 0.8178581816789381 0.8731607500225111	-0.166374
C	0.5806179586933359 0.7749726065841678 0.8704973808122894	0.080984
C	0.4203662600348220 0.4006496406860302 0.1295922493396951	0.090565
C	0.3760405388688021 0.4475026483734309 0.1274456664780867	-0.164646
C	0.2781644046716198 0.5513950676936901 0.1267539081592275	-0.114629
C	0.2309839852485156 0.5944819200164391 0.1260932212414041	-0.111754
C	0.1276155279615236 0.6825925643835444 0.1259345026539360	-0.162393
C	0.0803848628842551 0.7255727711592177 0.1290569953944530	0.083216
C	0.9203663020348180 0.9006495946860332 0.1295922493396951	0.090573
C	0.8760405808688061 0.9475026023734346 0.1274456664780867	-0.164670
C	0.7781644256716178 0.0513950626936863 0.1267539081592275	-0.114637
C	0.7309840052485168 0.0944819080164448 0.1260932212414041	-0.111755
C	0.6276155279615235 0.1825926113835447 0.1259345026539360	-0.162393
C	0.5803848578842515 0.2255727951592199 0.1290569953944530	0.083216
C	0.5796337399651784 0.5993503593139701 0.6295922883396947	0.090565
C	0.6239594611311974 0.5524973516265687 0.6274456824780880	-0.164648
C	0.7218355743283822 0.4486049323063099 0.6267538771592280	-0.114637
C	0.7690159947514832 0.4055180799835614 0.6260931752414072	-0.111754
C	0.8723845130384763 0.3174073886164550 0.6259344876539312	-0.162419
C	0.9196151841157448 0.2744271818407817 0.6290569793944516	0.083260
C	0.0796337449651820 0.0993503593139699 0.6295922883396947	0.090574
C	0.1239594401311923 0.0524973456265685 0.6274456824780880	-0.164673
C	0.2218355743283820 0.9486049783063137 0.6267538771592280	-0.114637
C	0.2690160147514844 0.9055181259835576 0.6260931752414072	-0.111751
C	0.3723844720384765 0.8174073886164552 0.6259344876539312	-0.162438
C	0.4196151421157488 0.7744272288407823 0.6290569793944516	0.083286
C	0.3513494905494842 0.5251863205348289 0.7479445238481116	0.119252
C	0.3033531116083477 0.4746103501001297 0.7479103848400979	0.073716
C	0.2047958530664472 0.3837670049584924 0.7487799942967663	0.063532
C	0.1534364330374960 0.3397558865750774 0.7492513453212947	0.102857
C	0.8513495315494836 0.0251863185348289 0.7479445238481116	0.119288
C	0.8033531746083492 0.9746103961001336 0.7479103848400979	0.073711
C	0.7047958530664470 0.8837670049584923 0.7487799942967663	0.063550
C	0.6534364540374943 0.8397558865750774 0.7492513453212947	0.102857
C	0.6486505094505163 0.4748136794651709 0.2479445088481139	0.119225
C	0.6966468253916508 0.5253896038998664 0.2479103698401001	0.073740
C	0.7952041469335530 0.6162329950415077 0.2487799792967686	0.063551
C	0.8465635459625057 0.6602441134249226 0.2492513303212971	0.102843
C	0.1486504994505151 0.9748136324651707 0.2479445088481139	0.119262
C	0.1966468673916469 0.0253896408998658 0.2479103698401001	0.073714
C	0.2952041469335528 0.1162330060415120 0.2487799792967686	0.063552
C	0.3465635669625041 0.1602441364249208 0.2492513303212971	0.102866
C	0.6486505094505163 0.5251863205348289 0.7479445238481116	0.119250
C	0.6966468253916508 0.4746103501001297 0.7479103848400979	0.073737
C	0.7952041469335530 0.3837670049584924 0.7487799942967663	0.063553
C	0.8465635459625057 0.3397558865750774 0.7492513453212947	0.102829
C	0.1486504994505151 0.0251863185348289 0.7479445238481116	0.119288
C	0.1966468673916469 0.9746103961001336 0.7479103848400979	0.073711
C	0.2952041469335528 0.8837670049584923 0.7487799942967663	0.063550
C	0.3465635669625041 0.8397558865750774 0.7492513453212947	0.102860
C	0.3513494905494842 0.4748136794651709 0.2479445088481139	0.119227
C	0.3033531116083477 0.5253896038998664 0.2479103698401001	0.073718
C	0.2047958530664472 0.6162329950415077 0.2487799792967686	0.063533
C	0.1534364330374960 0.6602441134249226 0.2492513303212971	0.102863
C	0.8513495315494836 0.9748136324651707 0.2479445088481139	0.119262
C	0.8033531746083492 0.0253896408998658 0.2479103698401001	0.073713
C	0.7047958530664470 0.1162330060415120 0.2487799792967686	0.063552
C	0.6534364540374943 0.1602441364249208 0.2492513303212971	0.102863
H	0.4394583637914614 0.6199511424271230 0.5348749192137643	0.126206
H	0.3623414294509230 0.5394397290319648 0.5249443348580217	0.106495
H	0.2948167107566078 0.4610254909539636 0.5262653935513329	0.085151
H	0.2147400816603852 0.3891722481782293 0.5261155149640419	0.104633
H	0.1437785217220398 0.3321675544464053 0.5249308613567197	0.124515
H	0.0596124812724398 0.2547394351417730 0.5354394368495498	0.127552
H	0.9394583637914612 0.1199511194271246 0.5348749192137643	0.126204
H	0.8623414294509232 0.0394397490319593 0.5249443348580217	0.106500
H	0.7948166487566098 0.9610254909539635 0.5262653935513329	0.085151
H	0.7147400606603871 0.8891722951782296 0.5261155149640419	0.104633
H	0.6437785217220400 0.8321675774464035 0.5249308613567197	0.124515
H	0.5596124662724418 0.7547394351417727 0.5354394368495498	0.127552
H	0.5605416362085388 0.3800488805728753 0.0348748892137619	0.126204
H	0.6376585705490768 0.4605602709680355 0.0249443348580220	0.106496
H	0.7051833512433902 0.5389745090460365 0.0262654555513313	0.085152
H	0.7852599393396129 0.6108277518217707 0.0261154839640353	0.104638
H	0.8562214362779565 0.6678324695535969 0.0249308923567185	0.124467
H	0.9403875757275546 0.7452605648582273 0.0354394058495510	0.127540
H	0.0605416212085338 0.8800489035728808 0.0348748892137619	0.126204
H	0.1376586015490760 0.9605602249680385 0.0249443348580220	0.106499
H	0.2051833102433905 0.0389745150460370 0.0262654555513313	0.085151
H	0.2852599393396130 0.1108277398217699 0.0261154839640353	0.104638
H	0.3562214782779603 0.1678324575535958 0.0249308923567185	0.124486
H	0.4403874927275579 0.2452605408582253 0.0354394058495510	0.127510
H	0.5618460351000031 0.6187076648652252 -0.0359191059468499	0.120742
H	0.6383464232303049 0.5384100113440876 -0.0287412741263678	0.104929
H	0.7044452230068737 0.4610309105602948 -0.0303836043251918	0.085141
H	0.7847257050518824 0.3894504440335338 -0.0286188039702396	0.104733
H	0.8558876721590428 0.3330204661174496 -0.0262376595728831	0.123684
H	0.9396569737389907 0.2562066875887400 -0.0349863611042847	0.119555
H	0.0618460200999987 0.1187076418652268 -0.0359191059468499	0.120741
H	0.1383464542303040 0.0384100313440820 -0.0287412741263678	0.104927
H	0.2044451820068744 0.9610309105602945 -0.0303836043251918	0.085140
H	0.2847257050518829 0.8894504910335347 -0.0286188039702396	0.104733
H	0.3558877141590458 0.8330204891174480 -0.0262376595728831	0.123685
H	0.4396568907389948 0.7562066875887398 -0.0349863611042847	0.119555
H	0.4381539648999963 0.3812923581347732 0.4640809150531483	0.120741
H	0.3616535767696951 0.4615899886559126 0.4712587508736307	0.104939
H	0.2955548389931237 0.5389690894397055 0.4696163726748098	0.085127
H	0.2152743159481155 0.6105495559664657 0.4713812400297568	0.104720
H	0.1441122858409541 0.6669795578825524 0.4737622904271126	0.123684
H	0.0603430832610031 0.7437933124112602 0.4650136228957209	0.119556
H	0.9381539648999969 0.8812923811347786 0.4640809150531483	0.120741
H	0.8616535767696951 0.9615899426559157 0.4712587508736307	0.104937
H	0.7955547769931263 0.0389690954397058 0.4696163726748098	0.085140
H	0.7152742949481176 0.1105495439664649 0.4713812400297568	0.104734
H	0.6441122858409537 0.1669795458825513 0.4737622904271126	0.123684
H	0.5603430682610057 0.2437932884112579 0.4650136228957210	0.119556
H	0.5618460351000031 0.3812923581347732 0.4640809150531483	0.120742
H	0.6383464232303049 0.4615899886559126 0.4712587508736307	0.104939
H	0.7044452230068737 0.5389690894397055 0.4696163726748098	0.085142
H	0.7847257050518824 0.6105495559664657 0.4713812400297568	0.104732
H	0.8558876721590428 0.6669795578825524 0.4737622904271127	0.123680
H	0.9396569737389907 0.7437933124112602 0.4650136228957210	0.119557
H	0.0618460200999987 0.8812923811347786 0.4640809150531483	0.120742
H	0.1383464542303040 0.9615899426559157 0.4712587508736307	0.104937
H	0.2044451820068744 0.0389690954397058 0.4696163726748098	0.085141
H	0.2847257050518829 0.1105495439664649 0.4713812400297568	0.104732
H	0.3558877141590458 0.1669795458825513 0.4737622904271127	0.123681
H	0.4396568907389948 0.2437932884112579 0.4650136228957209	0.119557
H	0.4381539648999963 0.6187076648652252 -0.0359191059468500	0.120743
H	0.3616535767696951 0.5384100113440876 -0.0287412741263678	0.104929
H	0.2955548389931237 0.4610309105602948 -0.0303836043251918	0.085128
H	0.2152743159481155 0.3894504440335338 -0.0286188039702396	0.104718
H	0.1441122858409541 0.3330204661174496 -0.0262376595728831	0.123682
H	0.0603430832610031 0.2562066875887400 -0.0349863611042847	0.119557
H	0.9381539648999969 0.1187076418652268 -0.0359191059468499	0.120743
H	0.8616535767696951 0.0384100313440820 -0.0287412741263678	0.104927
H	0.7955547769931263 0.9610309105602945 -0.0303836043251918	0.085141
H	0.7152742949481176 0.8894504910335347 -0.0286188039702396	0.104732
H	0.6441122858409537 0.8330204891174480 -0.0262376595728831	0.123682
H	0.5603430682610057 0.7562066875887398 -0.0349863611042847	0.119557
H	0.4394583637914614 0.3800488805728753 0.0348748892137619	0.126207
H	0.3623414294509230 0.4605602709680355 0.0249443348580220	0.106495
H	0.2948167107566078 0.5389745090460365 0.0262654555513313	0.085151
H	0.2147400816603852 0.6108277518217707 0.0261154839640353	0.104636
H	0.1437785217220398 0.6678324695535969 0.0249308923567185	0.124480
H	0.0596124812724398 0.7452605648582273 0.0354394058495510	0.127554
H	0.9394583637914612 0.8800489035728808 0.0348748892137619	0.126205
H	0.8623414294509232 0.9605602249680385 0.0249443348580220	0.106499
H	0.7948166487566098 0.0389745150460370 0.0262654555513313	0.085151
H	0.7147400606603871 0.1108277398217699 0.0261154839640353	0.104637
H	0.6437785217220400 0.1678324575535958 0.0249308923567185	0.124480
H	0.5596124662724418 0.2452605408582253 0.0354394058495510	0.127554
H	0.5605416362085388 0.6199511424271230 0.5348749192137643	0.126206
H	0.6376585705490768 0.5394397290319648 0.5249443348580217	0.106496
H	0.7051833512433902 0.4610254909539636 0.5262653935513329	0.085151
H	0.7852599393396129 0.3891722481782293 0.5261155149640419	0.104632
H	0.8562214362779565 0.3321675544464053 0.5249308613567197	0.124498
H	0.9403875757275546 0.2547394351417730 0.5354394368495498	0.127550
H	0.0605416212085338 0.1199511194271246 0.5348749192137643	0.126206
H	0.1376586015490760 0.0394397490319593 0.5249443348580217	0.106499
H	0.2051833102433905 0.9610254909539635 0.5262653935513329	0.085150
H	0.2852599393396130 0.8891722951782296 0.5261155149640419	0.104632
H	0.3562214782779603 0.8321675774464035 0.5249308613567197	0.124516
H	0.4403874927275579 0.7547394351417727 0.5354394368495498	0.127513
Ni	0.5000000000000000 0.6878549888447575 0.7487502229090172	0.392513
Ni	-0.0000000000000000 0.1878549888447574 0.7487502229090172	0.392509
Ni	0.5000000000000000 0.3121450111552428 0.2487502079090194	0.392514
Ni	-0.0000000000000000 0.8121449641552422 0.2487502079090194	0.392510
F	0.5000000000000000 0.6853681581473712 0.4588429599286357	-0.667036
F	-0.0000000000000000 0.1853681921473739 0.4588429599286357	-0.667039
F	0.5000000000000000 0.3146318188526304 0.9588429289286364	-0.667036
F	-0.0000000000000000 0.8146317958526321 0.9588429289286364	-0.667038
F	0.4431331459818509 0.7485725623125860 0.2617165265178298	-0.609930
F	0.5565270672744070 0.6183776384330860 0.2618688673545350	-0.605311
F	0.9431331459818512 0.2485726083125824 0.2617165265178298	-0.609933
F	0.0565270672744068 0.1183776504330799 0.2618688673545350	-0.605310
F	0.5568668540181488 0.2514273916874175 0.7617165415178277	-0.609935
F	0.4434729327255932 0.3816223615669140 0.7618688823545328	-0.605310
F	0.0568668330181508 0.7514274376874140 0.7617165415178277	-0.609934
F	0.9434729327255930 0.8816224075669178 0.7618688823545328	-0.605309
F	0.5568668540181488 0.7485725623125860 0.2617165265178298	-0.609934
F	0.4434729327255932 0.6183776384330860 0.2618688673545350	-0.605311
F	0.0568668330181508 0.2485726083125824 0.2617165265178298	-0.609933
F	0.9434729327255930 0.1183776504330799 0.2618688673545350	-0.605310
F	0.4431331459818509 0.2514273916874175 0.7617165415178277	-0.609932
F	0.5565270672744070 0.3816223615669140 0.7618688823545328	-0.605309
F	0.9431331459818512 0.7514274376874140 0.7617165415178277	-0.609934
F	0.0565270672744068 0.8816224075669178 0.7618688823545328	-0.605309
O	0.5000000000000000 0.6843418699404596 0.0690803332593263	-0.831984
O	-0.0000000000000000 0.1843419039404627 0.0690803332593263	-0.831984
O	0.5000000000000000 0.3156581070595417 0.5690803562593247	-0.831984
O	-0.0000000000000000 0.8156580840595437 0.5690803562593247	-0.831984
N	0.4421567759812620 0.6220725589012450 0.7494433944126802	-0.144768
N	0.5580967009072333 0.7532269624590293 0.7501743442142952	-0.151882
N	0.9421568169812614 0.1220725699012429 0.7494433944126802	-0.144769
N	0.0580967169072343 0.2532269154590292 0.7501743442142952	-0.151882
N	0.5578432240187384 0.3779274180987560 0.2494433794126825	-0.144774
N	0.4419032990927672 0.2467730605409689 0.2501743292142978	-0.151907
N	0.0578432240187383 0.8779274410987550 0.2494433794126825	-0.144774
N	0.9419032990927667 0.7467730375409707 0.2501743292142978	-0.151891
N	0.5578432240187384 0.6220725589012450 0.7494433944126802	-0.144767
N	0.4419032990927672 0.7532269624590293 0.7501743442142952	-0.151906
N	0.0578432240187383 0.1220725699012429 0.7494433944126802	-0.144767
N	0.9419032990927667 0.2532269154590292 0.7501743442142952	-0.151884
N	0.4421567759812620 0.3779274180987560 0.2494433794126825	-0.144772
N	0.5580967009072333 0.2467730605409689 0.2501743292142978	-0.151880
N	0.9421568169812614 0.8779274410987550 0.2494433794126825	-0.144773
N	0.0580967169072343 0.7467730375409707 0.2501743292142978	-0.151880
V	0.5000000000000000 0.6838399661338243 0.2404103799558294	2.275909
V	-0.0000000000000000 0.1838400121338208 0.2404103799558294	2.275910
V	0.5000000000000000 0.3161599878661793 0.7404103949558273	2.275909
V	-0.0000000000000000 0.8161600338661757 0.7404103949558273	2.275910
	  	
