#======================================================================

# CRYSTAL DATA

#----------------------------------------------------------------------

data_VESTA_phase_1


_pd_phase_name                         VOFFIVE_13_Co_i
_cell_length_a                         15.05274
_cell_length_b                         15.05109
_cell_length_c                         7.83381
_cell_angle_alpha                      89.89442
_cell_angle_beta                       90.02158
_cell_angle_gamma                      89.88309
_symmetry_space_group_name_H-M         P 1
_symmetry_Int_Tables_number            1

loop_
_symmetry_equiv_pos_as_xyz
   x, y, z

loop_
   _atom_site_label
   _atom_site_fract_x
   _atom_site_fract_y
   _atom_site_fract_z
   _atom_site_charge
C	0.5405156076849427 0.6785612180491964 0.8692346998658406	0.100560
C	0.5438212656518950 0.7709496728638726 0.8672886344162479	-0.146054
C	0.4632221860876893 0.3241896994105344 0.8755992977640430	0.099336
C	0.4597841602791331 0.2318857034581740 0.8759557848613889	-0.139429
C	0.8233004450784237 0.9732831405050918 0.3630904470194883	0.102164
C	0.7311045633549135 0.9704212688446047 0.3597680709440234	-0.134986
C	0.3236667802237357 0.5415417781794698 0.8671176302186187	0.098389
C	0.2313204708568781 0.5457020000541326 0.8649205243420920	-0.146564
C	0.1786979244378574 0.9713405175346634 0.3552036767993019	0.095986
C	0.2710002679100978 0.9697601280586406 0.3521484442351590	-0.136575
C	0.6779027177062298 0.4628078228840002 0.8810889214685841	0.099605
C	0.7701417550041120 0.4596495435087954 0.8809036273073895	-0.138812
C	0.4545150273199138 0.6793123601115817 0.1170159388018044	0.101337
C	0.4510406769221534 0.7714393426325749 0.1178071109513169	-0.137338
C	0.5401758811545609 0.3252234915081120 0.1344420340506794	0.098942
C	0.5428627902779047 0.2329357380673089 0.1387969254221508	-0.147201
C	0.1777380801587456 0.0205335170955174 0.6371123121006123	0.106707
C	0.2697386151257716 0.0225028323455419 0.6427787086056707	-0.139174
C	0.6765499484620022 0.5439152743790642 0.1347908091234944	0.101311
C	0.7688722596238297 0.5472212321182974 0.1380440970031492	-0.147040
C	0.8227460225790589 0.0298632762247768 0.6399805019549443	0.095603
C	0.7306288923567541 0.0308837195672747 0.6449343812335601	-0.135323
C	0.3221852691305113 0.4578497522735374 0.1181926353544496	0.101916
C	0.2300156105935744 0.4552040751560316 0.1188617904909152	-0.139961
C	0.9654321757559299 0.8206152941917250 0.6368171772321396	0.106175
C	0.9641405574661792 0.7284146174626961 0.6422687568040431	-0.135736
C	0.9828530450993079 0.1761446651523303 0.6411316127328024	0.096572
C	0.9796349478809504 0.2681242839672223 0.6440382438757920	-0.135870
C	0.0214052162139502 0.8202292673642038 0.3595074675783990	0.092650
C	0.0241199873935894 0.7280878463480818 0.3566634707680313	-0.135560
C	0.0308471214867000 0.1750803083174043 0.3582509187154296	0.105381
C	0.0313296473779275 0.2674173426894506 0.3524907926701334	-0.136675
C	0.0039564633720749 0.3148732753585280 0.4969530277322454	0.040914
C	0.0010775285528980 0.4121395394087902 0.4968171921162881	0.256170
C	0.4978303975730654 0.8184394528729959 0.9926039414294586	0.054245
C	0.4988893352213175 0.9163771424628818 0.9972623004707430	0.245636
C	0.9951877853386139 0.6810451474022590 0.5005218114227741	0.034954
C	0.9971283536169880 0.5836647552693276 0.5003158238849389	0.250019
C	0.5010169059444886 0.1851921120751178 0.0087992148565042	0.054086
C	0.5003300559388225 0.0871733292181721 0.0096594134472256	0.251286
C	0.6837030731210079 -0.0000878398669649 0.5027898023047498	0.037236
C	0.5863575427615626 0.9977067326958048 0.5038187319937053	0.247307
C	0.1834397199184203 0.5011319843033106 0.9915922764570515	0.056064
C	0.0854996426853174 0.5021969419788436 0.9938283709128407	0.248212
C	0.3175306316817951 0.9960430854111491 0.4982702838162180	0.041183
C	0.4148252802388636 0.9960079383761807 0.5012460042546438	0.257212
C	0.8167197390702533 0.5035606389750653 0.0102109431618372	0.054649
C	0.9147267187179118 0.5034349566391010 0.0076024448603010	0.248508
H	0.5709348779009786 0.6390152775465850 0.7682353394271472	0.116265
H	0.5808125683459306 0.8049575646293636 0.7671789067932371	0.125792
H	0.4362664336460251 0.3631677789423758 0.7698780616210863	0.117784
H	0.4278924580213566 0.1964447201715251 0.7716003880473250	0.120764
H	0.8627016989794101 0.9527539989741378 0.2533677422165441	0.115098
H	0.6968849810375068 0.9462200090825351 0.2466042285809520	0.121029
H	0.3633319050955208 0.5708636811876115 0.7649496545232815	0.117303
H	0.1976601679434394 0.5821933093910938 0.7634946068873776	0.126163
H	0.1405990546144870 0.9542517615578253 0.2417643622726672	0.107700
H	0.3054994715651039 0.9499329407313681 0.2360722522107488	0.118285
H	0.6388882825924744 0.4343823807980393 0.7773728148376436	0.118210
H	0.8056980330296475 0.4262288561546984 0.7783688676372488	0.119172
H	0.4235626155724087 0.6402467745422985 0.2180461996202365	0.114182
H	0.4157618826545291 0.8064024016010567 0.2186716619724065	0.118423
H	0.5681340932084696 0.3646255792563768 0.2381695336442200	0.111549
H	0.5758916986763887 0.1993961035623227 0.2446274123001227	0.126605
H	0.1385040315982442 0.0392736154602160 0.7479910264802219	0.107796
H	0.3031011418574209 0.0431405721024738 0.7593791962754902	0.120736
H	0.6370602971016475 0.5732828932659023 0.2370545745760675	0.110930
H	0.8022799649932794 0.5822255862440502 0.2413020017938795	0.126129
H	0.8608045584857319 0.0505794708452877 0.7510875204195706	0.100480
H	0.6966855394545398 0.0538825612911768 0.7593521872409128	0.122236
H	0.3609024593122767 0.4275152549636895 0.2206520606650506	0.112722
H	0.1946767137639732 0.4209405957106460 0.2206648601165193	0.118408
H	0.9437773861882754 0.8595708033436145 0.7462407358110966	0.108876
H	0.9407630505735624 0.6946918342930990 0.7568293514395735	0.120996
H	0.9667551331660624 0.1381242516868486 0.7550368057946039	0.098467
H	0.9594507550981950 0.3022603674688819 0.7601131265679355	0.120663
H	0.0403587279606381 0.8587034079964597 0.2476192988711370	0.107262
H	0.0476853866785443 0.6938703698994555 0.2430778885327933	0.120974
H	0.0493566716038582 0.1355338863798240 0.2473704546475959	0.116703
H	0.0508375034440953 0.3014126185176619 0.2355337110733717	0.119420
N	0.9438766162575688 0.5398978475856010 0.6109453341198881	-0.136226
N	0.4204551470528002 0.0464631642424731 0.0088153667432949	-0.148504
N	0.5432682984478733 0.0504019283273591 0.6164379304010226	-0.135756
N	0.9557919698100258 0.4236066591417420 0.0025134046672379	-0.146861
N	0.0519366875353029 0.5433526426256298 0.3875400732321181	-0.135392
N	0.5794546551896729 0.0447753912789110 0.0117483443792987	-0.148864
N	0.9566931718569117 0.5826450087013488 0.0052470895261239	-0.147623
N	0.5454403971188170 0.9418399503680139 0.3941883013373543	-0.133535
N	0.0543706690119584 0.4559402904477111 0.3866844096394667	-0.131456
N	0.5787424833345697 0.9571172040006958 0.0006896731033337	-0.145153
N	0.4579568542088619 0.9409532643005005 0.3932682112398060	-0.132254
N	0.0443460120335140 0.5819991613153453 0.9938370980081417	-0.144864
N	0.9454560093197745 0.4523976418142275 0.6079915780735045	-0.132231
N	0.4198143685637200 0.9586605571234925 0.0061368425116533	-0.143465
N	0.0435705651936289 0.4229632469095641 0.9988080774106757	-0.147809
N	0.4558176646551385 0.0496334838168029 0.6147034938789951	-0.135001
N	0.0062018842100642 0.1303103236086649 0.5001988061444248	-0.167675
N	0.4979705295622561 0.6337409114213707 0.9942821080654234	-0.176624
N	0.9943572616033145 0.8657768373018843 0.4983985002674147	-0.164284
N	0.5016626005069517 0.3698629399718201 0.0042313215628667	-0.180427
N	0.8683136101994459 0.0019513775769736 0.5016556044706729	-0.165230
N	0.3681090103321091 0.4996596833729365 0.9936678108241376	-0.178854
N	0.1328789818586324 0.9952883502735853 0.4960415345771612	-0.168256
N	0.6320410993873775 0.5032631959262529 0.0073090664807261	-0.177882
Co	0.0004807320174558 0.9980941121767030 0.5014250115488635	0.612264
Co	0.4999932182939777 0.5017419594408118 0.0021726740702570	0.627678
V	0.0001369346500144 0.9963213146269925 0.9793850948793422	2.228169
V	0.4988416058884722 0.5035962122345038 0.4800873301486162	2.251908
F	0.9983898866815880 0.0005313288205270 0.2312109233463013	-0.618771
F	0.5055016975017894 0.4997989221404902 0.7317952872120448	-0.625150
F	0.0877700079533112 0.0833257727441474 0.9989970604209499	-0.576609
F	0.5846542074526360 0.5928213909959722 0.4979987234239974	-0.590663
F	0.9123266058276379 0.9102349890756828 0.0037756303026665	-0.574902
F	0.4138293816735243 0.4143289480024888 0.5062510209026719	-0.592742
F	0.9135178492377601 0.0848406189357828 0.9924617190499158	-0.572162
F	0.4108651790256145 0.5894679342986391 0.5133014862667163	-0.590595
F	0.0868563661970804 0.9091186673959365 0.0107794251924348	-0.572784
F	0.5891346396998243 0.4182064767320149 0.4912246898595021	-0.590555
O	0.0019887730628151 0.9937076023143084 0.7682060202497446	-0.829555
O	0.4941777080135341 0.5053213401091564 0.2693241627299564	-0.836448
	  	
