#======================================================================

# CRYSTAL DATA

#----------------------------------------------------------------------

data_VESTA_phase_1


_pd_phase_name                         VOFFIVE_18_Fe
_cell_length_a                         14.24432
_cell_length_b                         13.93204
_cell_length_c                         8.04378
_cell_angle_alpha                      89.64350
_cell_angle_beta                       95.56286
_cell_angle_gamma                      90.11153
_symmetry_space_group_name_H-M         P 1
_symmetry_Int_Tables_number            1

loop_
_symmetry_equiv_pos_as_xyz
   x, y, z

loop_
   _atom_site_label
   _atom_site_fract_x
   _atom_site_fract_y
   _atom_site_fract_z
   _atom_site_charge
F	0.4037211332737619 0.3777568205539356 0.5066672350962267	-0.562405
F	0.5145823656604844 0.4777264555359120 0.7360483462013032	-0.620767
F	0.4089841158732951 0.5636889877588175 0.5077555554061766	-0.554145
F	0.9037212002737637 0.8777567865539398 0.5066672350962267	-0.562403
F	0.0145823386604855 0.9777263865359170 0.7360483462013032	-0.620762
F	0.9089840488732929 0.0636890087588159 0.5077555554061766	-0.554142
F	0.5786240973929467 0.3645691224604732 0.5028522188396494	-0.567065
F	0.6005492347326861 0.5506268501950348 0.5003832804177987	-0.555245
F	0.0786241233929488 0.8645690884604768 0.5028522188396494	-0.567063
F	0.1005492267326783 0.0506268711950333 0.5003832804177987	-0.555245
O	0.4845671397869802 0.4763112263932895 0.2733768140146700	-0.791410
O	0.9845671067869806 0.9763111573932878 0.2733768140146700	-0.791412
C	0.6839918038829658 0.1525345972744395 0.6535536232444908	-0.423974
C	0.7577964851596269 0.1516937832212296 0.7974163222002941	0.205204
C	0.7612349315110805 0.1974867925056095 0.9524252443246657	-0.154167
C	0.6900085762755400 0.2601679365102764 0.0121817385699745	-0.144059
C	0.6743962968274396 0.3582665904509223 0.9704562705952511	0.225366
C	0.7279445904564231 0.4202770718477112 0.8612164359133588	-0.427314
C	0.8917706189850378 0.2083668556301363 0.2021301886175859	-0.433078
C	0.8501915283687899 0.1736627139559142 0.0363167882309261	0.215987
C	0.6244016933210583 0.2371580093566399 0.1253329427020815	0.206666
C	0.6031099338825732 0.1456556931582800 0.2106831162310817	-0.427352
C	0.1839918208829643 0.6525346312744350 0.6535536232444908	-0.423997
C	0.2577965191596226 0.6516938172212327 0.7974163222002941	0.205213
C	0.2612349825110810 0.6974868265056051 0.9524252443246657	-0.154222
C	0.1900086102755360 0.7601679365102763 0.0121817385699745	-0.144039
C	0.1743962718274340 0.8582666244509253 0.9704562705952511	0.225368
C	0.2279446404564201 0.9202771058477065 0.8612164359133588	-0.427325
C	0.3917705519850362 0.7083668386301312 0.2021301886175859	-0.433064
C	0.3501915953687915 0.6736627139559144 0.0363167882309261	0.215991
C	0.1244016933210650 0.7371580263566379 0.1253329427020815	0.206662
C	0.1031098748825795 0.6456557101582779 0.2106831162310817	-0.427349
C	0.3181132071181695 0.1540412685869613 0.3470726352017022	-0.424729
C	0.2440384433377779 0.1518320115499980 0.2037373144357920	0.208606
C	0.2398487085825426 0.1970402261523879 0.0472420958610538	-0.151699
C	0.3102068200049199 0.2612296627616607 0.9866475324047945	-0.147597
C	0.3245348905610260 0.3590464721369024 0.0295618283019896	0.219804
C	0.2686649907861384 0.4195750587487505 0.1360113561705447	-0.422082
C	0.1086797897008113 0.2054798749933284 0.7979362970101344	-0.437021
C	0.1509133294985348 0.1719480490611830 0.9648368695276386	0.221963
C	0.3763421019624874 0.2408264579180380 0.8734179184080009	0.208363
C	0.3986830175096123 0.1506165528540361 0.7872350685620230	-0.427149
C	0.8181132401181685 0.6540413025869570 0.3470726352017022	-0.424721
C	0.7440384763377772 0.6518320455500006 0.2037373144357920	0.208605
C	0.7398487425825455 0.6970402601523907 0.0472420958610538	-0.151696
C	0.8102068540049229 0.7612296627616605 0.9866475324047945	-0.147618
C	0.8245348565610305 0.8590465061369050 0.0295618283019896	0.219770
C	0.7686650587861374 0.9195750927487459 0.1360113561705447	-0.422019
C	0.6086797267008098 0.7054798579933239 0.7979362970101344	-0.437023
C	0.6509133804985350 0.6719480490611829 0.9648368695276386	0.221966
C	0.8763421019624874 0.7408264749180361 0.8734179184080009	0.208371
C	0.8986829505096104 0.6506165698540335 0.7872350685620230	-0.427152
H	0.7140377375268059 0.1714737726002416 0.5369594209821599	0.147841
H	0.6300017321458954 0.2059976780604901 0.6738125183496991	0.143748
H	0.6498562699120463 0.0818349809565715 0.6361333544526678	0.131373
H	0.6799145491688989 0.4603730928602116 0.7714385550522083	0.151921
H	0.7746233899630645 0.3758774005849338 0.7930479545922487	0.136683
H	0.7716493870307491 0.4723510498107069 0.9367034794321084	0.126148
H	0.8664471124087865 0.0714388361822643 0.6956610465127004	0.287050
H	0.8952195216922347 0.1517081103821868 0.2979305759773853	0.153649
H	0.8482597702178285 0.2668458588310847 0.2435274693355358	0.131920
H	0.9639143207592649 0.2351451304176009 0.1949490472314530	0.138629
H	0.5767056056536116 0.1595894609463933 0.3320842534473831	0.143524
H	0.6664667327012667 0.1007919120261405 0.2306430557427641	0.149411
H	0.5487434485800101 0.1040404658597721 0.1352242800139968	0.131533
H	0.5271281218842863 0.3318955576559718 0.2270092846812881	0.270061
H	0.2140377035268104 0.6714737726002418 0.5369594209821599	0.147845
H	0.1300017411458929 0.7059976270604896 0.6738125183496991	0.143748
H	0.1498562439120441 0.5818349639565736 0.6361333544526678	0.131372
H	0.1799145831688945 0.9603731268602139 0.7714385550522083	0.151934
H	0.2746234399630613 0.8758774345849438 0.7930479545922487	0.136691
H	0.2716493870307489 0.9723510148107005 0.9367034794321084	0.126152
H	0.3664471794087883 0.5714388271822674 0.6956610465127004	0.287039
H	0.3952195216922353 0.6517081103821871 0.2979305759773853	0.153653
H	0.3482597702178288 0.7668458238310855 0.2435274693355358	0.131920
H	0.4639143207592650 0.7351451474175985 0.1949490472314530	0.138611
H	0.0767055846536129 0.6595894779463912 0.3320842534473831	0.143522
H	0.1664667827012634 0.6007919040261464 0.2306430557427641	0.149415
H	0.0487434105800070 0.6040404138597677 0.1352242800139968	0.131534
H	0.0271281078842847 0.8318955926559708 0.2270092846812881	0.270058
H	0.2881837846763668 0.1732249021705515 0.4630733891592208	0.149802
H	0.3717116041428730 0.2078623994367598 0.3245156211073675	0.140847
H	0.3527734991616762 0.0838287616562319 0.3670603757285133	0.134124
H	0.3148320821480496 0.4619425361786682 0.2245714741111974	0.144436
H	0.2232414373454703 0.3740933346203277 0.2059671000953507	0.137178
H	0.2235543692522002 0.4698185679814070 0.0581292138502326	0.129189
H	0.1377150046919418 0.0702779107500672 0.3101712096272692	0.280672
H	0.1017360348092305 0.1472428653159343 0.7063128047773178	0.158027
H	0.1535365239234507 0.2617157180311548 0.7511880201935739	0.132855
H	0.0377685338622526 0.2349305587722863 0.8063001762552046	0.140964
H	0.4253303868312322 0.1665464746310345 0.6664871956086118	0.144454
H	0.3358558608470698 0.1049172501433230 0.7662861686439321	0.149915
H	0.4533369886979713 0.1090603650183608 0.8626446416725895	0.131613
H	0.4718568662481811 0.3402402458084665 0.7724886392675591	0.278862
H	0.7881838186763627 0.6732249021705515 0.4630733891592208	0.149806
H	0.8717116041428726 0.7078623484367587 0.3245156211073675	0.140844
H	0.8527734661616768 0.5838287446562335 0.3670603757285133	0.134119
H	0.8148321151480488 0.9619425701786715 0.2245714741111974	0.144424
H	0.7232414713454731 0.8740933686203304 0.2059671000953507	0.137170
H	0.7235543522522023 0.9698185329814006 0.0581292138502326	0.129191
H	0.6377150466919452 0.5702779017500698 0.3101712096272692	0.280673
H	0.6017360768092344 0.6472428653159268 0.7063128047773178	0.158030
H	0.6535365409234486 0.7617156830311548 0.7511880201935739	0.132861
H	0.5377685128622542 0.7349305757722840 0.8063001762552046	0.140964
H	0.9253303868312247 0.6665464916310321 0.6664871956086118	0.144455
H	0.8358559288470687 0.6049172421433295 0.7662861686439321	0.149915
H	0.9533369886979711 0.6090603130183563 0.8626446416725895	0.131615
H	0.9718568662481817 0.8402402808084662 0.7724886392675591	0.278858
N	0.8393757536867753 0.1029748155991023 0.7965652014153498	-0.145323
N	0.6033717397622725 0.3923979455760682 0.0518185208412004	-0.260540
N	0.8966939445907616 0.1153016078674872 0.9395574842552918	-0.266163
N	0.5750834229007691 0.3181082265879511 0.1443850864394243	-0.140218
N	0.3393756866867731 0.6029747985990973 0.7965652014153498	-0.145255
N	0.1033717567622700 0.8923979805760676 0.0518185208412004	-0.260549
N	0.3966939105907589 0.6153016418674829 0.9395574842552918	-0.266157
N	0.0750834229007695 0.8181082265879511 0.1443850864394243	-0.140212
N	0.1629390353070869 0.1022013900313038 0.2071065063072736	-0.147310
N	0.3954236764475458 0.3952110419754213 0.9492229582860499	-0.251910
N	0.1051126598538944 0.1133929081341647 0.0639797083113626	-0.257380
N	0.4247510814692373 0.3227629294071075 0.8557080490303183	-0.139037
N	0.6629390353070869 0.6022013730312992 0.2071065063072736	-0.147302
N	0.8954236764475459 0.8952110769754204 0.9492229582860499	-0.251904
N	0.6051126848538930 0.6133929421341601 0.0639797083113626	-0.257365
N	0.9247510814692367 0.8227629294071073 0.8557080490303183	-0.139037
V	0.4965779233727255 0.4667372405533056 0.4796859034826881	2.216453
V	0.9965779253727253 0.9667373095533003 0.4796859034826881	2.216464
Fe	0.5003702068735575 0.5069915310070889 -0.0008444687596724	0.854231
Fe	0.0003702068735574 0.0069915350070962 -0.0008444687596724	0.854275
	  	
