#======================================================================

# CRYSTAL DATA

#----------------------------------------------------------------------

data_VESTA_phase_1


_pd_phase_name                         VOFFIVE_2_Ni
_cell_length_a                         13.50710
_cell_length_b                         13.50710
_cell_length_c                         8.11614
_cell_angle_alpha                      90
_cell_angle_beta                       90
_cell_angle_gamma                      90
_symmetry_space_group_name_H-M         P 1
_symmetry_Int_Tables_number            1

loop_
_symmetry_equiv_pos_as_xyz
   x, y, z

loop_
   _atom_site_label
   _atom_site_fract_x
   _atom_site_fract_y
   _atom_site_fract_z
   _atom_site_charge
C	0.5322426832431049 0.6940084650845880 0.1335996379323209	0.093098
C	0.5322822847543012 0.7965976303586437 0.1379535089571919	-0.165267
C	0.4677573167568954 0.3059915699154115 0.1335996379323209	0.093095
C	0.4677177152456989 0.2034024046413556 0.1379535089571919	-0.165265
C	0.3059915699154115 0.5322426832431049 0.1335996379323209	0.093098
C	0.2034024046413556 0.5322822847543012 0.1379535089571919	-0.165267
C	0.6940084650845880 0.4677573167568954 0.1335996379323209	0.093096
C	0.7965976303586437 0.4677177152456989 0.1379535089571919	-0.165265
C	0.4691711105382038 0.6928872884172060 0.8663130653463637	0.093333
C	0.4682184077959393 0.7955592521585838 0.8609603987497898	-0.162726
C	0.5308288894617964 0.3071127465827936 0.8663130653463637	0.093330
C	0.5317815922040607 0.2044407828414156 0.8609603987497898	-0.162723
C	0.6928872884172060 0.5308288894617964 0.8663130653463637	0.093331
C	0.7955592521585838 0.5317815922040607 0.8609603987497898	-0.162724
C	0.3071127465827936 0.4691711105382038 0.8663130653463637	0.093333
C	0.2044407828414156 0.4682184077959393 0.8609603987497898	-0.162726
C	0.5000045575967224 0.1499303700033094 -0.0009107005561890	0.169600
C	0.5001425612427243 0.0451535828327632 -0.0014751246147826	-0.091068
C	0.4999954424032775 0.8500696299966904 -0.0009107005561890	0.169569
C	0.4998574387572756 0.9548464091672362 -0.0014751246147826	-0.090818
C	0.8500696299966904 0.5000045575967224 -0.0009107005561890	0.169600
C	0.9548464091672362 0.5001425612427243 -0.0014751246147826	-0.091068
C	0.1499303700033094 0.4999954424032775 -0.0009107005561890	0.169569
C	0.0451535828327632 0.4998574387572756 -0.0014751246147826	-0.090818
H	0.5568702354116452 0.6508665402621256 0.2394844816265297	0.111285
H	0.5576077158096456 0.8344445646869577 0.2485505067867566	0.131858
H	0.4431297645883542 0.3491333897378689 0.2394844816265297	0.111285
H	0.4423922841903546 0.1655554353130420 0.2485505067867566	0.131859
H	0.3491333897378689 0.5568702354116452 0.2394844816265297	0.111285
H	0.1655554353130420 0.5576077158096456 0.2485505067867566	0.131858
H	0.6508665402621256 0.4431297645883542 0.2394844816265297	0.111285
H	0.8344445646869577 0.4423922841903546 0.2485505067867566	0.131859
H	0.4455612605871668 0.6486762625249153 0.7608788847952894	0.117316
H	0.4425804131715693 0.8326332375135058 0.7498848344257286	0.131482
H	0.5544387394128334 0.3513236674750792 0.7608788847952894	0.117316
H	0.5574195868284311 0.1673667624864943 0.7498848344257286	0.131483
H	0.6486762625249153 0.5544387394128334 0.7608788847952894	0.117316
H	0.8326332375135058 0.5574195868284311 0.7498848344257286	0.131484
H	0.3513236674750792 0.4455612605871668 0.7608788847952894	0.117316
H	0.1673667624864943 0.4425804131715693 0.7498848344257286	0.131482
Ni	0.5000000000000000 0.5000000000000000 0.0018621831262341	0.488405
V	0.5000000000000000 0.5000000000000000 0.4838628216268268	2.244233
F	0.5000000000000000 0.5000000000000000 0.7271604218664316	-0.630064
F	0.5964037203459103 0.5986810471419648 0.5059072061416602	-0.596784
F	0.4013189878580347 0.5964037203459103 0.5059072061416602	-0.596784
F	0.4035963146540891 0.4013189878580347 0.5059072061416602	-0.596784
F	0.5986810471419648 0.4035963146540891 0.5059072061416602	-0.596784
O	0.5000000000000000 0.5000000000000000 0.2804637212853673	-0.821587
N	0.4992072305455800 0.3570674826999247 0.0005160434331292	-0.152485
N	0.5007927694544202 0.6429325523000750 0.0005160434331292	-0.152484
N	0.6429325523000750 0.4992072305455800 0.0005160434331292	-0.152485
N	0.3570674826999247 0.5007927694544202 0.0005160434331292	-0.152484
	  	
