#======================================================================

# CRYSTAL DATA

#----------------------------------------------------------------------

data_VESTA_phase_1


_pd_phase_name                         VOFFIVE_4_Co_i
_cell_length_a                         22.97891
_cell_length_b                         20.44436
_cell_length_c                         9.72636
_cell_angle_alpha                      90
_cell_angle_beta                       90
_cell_angle_gamma                      90
_symmetry_space_group_name_H-M         P 1
_symmetry_Int_Tables_number            1

loop_
_symmetry_equiv_pos_as_xyz
   x, y, z

loop_
   _atom_site_label
   _atom_site_fract_x
   _atom_site_fract_y
   _atom_site_fract_z
   _atom_site_charge
C	0.4181456563232491 0.5965633284076350 0.6248055503137053	0.095764
C	0.3744748326248745 0.5499076985681143 0.6271980343926292	-0.167786
C	0.2782370541140665 0.4490265501729908 0.6288308458241380	-0.117500
C	0.2316654504697086 0.4059233085432525 0.6270811742651206	-0.113859
C	0.1301977920474704 0.3178937844965187 0.6228494007309543	-0.163392
C	0.0834084961443958 0.2751519774467210 0.6226060026073665	0.090646
C	0.9181456983232446 0.0965633284076344 0.6248055503137053	0.095764
C	0.8744748746248784 0.0499076925681146 0.6271980343926292	-0.167786
C	0.7782370751140651 0.9490265961729948 0.6288308458241380	-0.117501
C	0.7316654704697110 0.9059233545432488 0.6270811742651206	-0.113859
C	0.6301977920474710 0.8178937844965192 0.6228494007309544	-0.163393
C	0.5834084911443921 0.7751520244467208 0.6226060026073665	0.090646
C	0.5818543436767518 0.4034366715923658 0.1248055113137058	0.095763
C	0.6255251673751251 0.4500923014318847 0.1271980183926276	-0.167786
C	0.7217629248859349 0.5509734498270090 0.1288308768241372	-0.117503
C	0.7683345295302890 0.5940766914567479 0.1270812202651175	-0.113845
C	0.8698022489525289 0.6821061685034805 0.1228494157309590	-0.163408
C	0.9165915508556043 0.7248479755532792 0.1226060186073674	0.090651
C	0.0818543486767552 0.9034366255923683 0.1248055113137058	0.095763
C	0.1255251463751207 0.9500922554318890 0.1271980183926276	-0.167786
C	0.2217629248859353 0.0509734448270051 0.1288308768241372	-0.117503
C	0.2683345495302915 0.0940766794567536 0.1270812202651175	-0.113846
C	0.3698022079525299 0.1821062155034811 0.1228494157309590	-0.163391
C	0.4165915088556082 0.2248479995532807 0.1226060186073674	0.090644
C	0.5805708353537105 0.5990453122950226 0.8613789635929858	0.080454
C	0.6245319775558619 0.5526521312174244 0.8676444437293308	-0.165178
C	0.7223772826044569 0.4489982532729922 0.8706422072956178	-0.113941
C	0.7688500956465588 0.4056567859692876 0.8712119650272244	-0.113842
C	0.8713692439971412 0.3165176845991109 0.8686579834034598	-0.168124
C	0.9182133100530872 0.2737724428088875 0.8621596370068882	0.076164
C	0.0805708403537144 0.0990453122950224 0.8613789635929858	0.080454
C	0.1245319565558565 0.0526521252174239 0.8676444437293308	-0.165178
C	0.2223772826044567 0.9489982992729955 0.8706422072956178	-0.113941
C	0.2688501156465606 0.9056568319692838 0.8712119650272244	-0.113842
C	0.3713692029971413 0.8165176845991107 0.8686579834034598	-0.168123
C	0.4182132680530902 0.7737724898088880 0.8621596370068882	0.076164
C	0.4194291646462894 0.4009546877049776 0.3613789945929844	0.080448
C	0.3754680224441381 0.4473478687825755 0.3676445057293283	-0.165178
C	0.2776226963955451 0.5510017467270083 0.3706422072956179	-0.113939
C	0.2311498843534394 0.5943432140307129 0.3712119340272247	-0.113845
C	0.1286307970028584 0.6834822684008890 0.3686579214034612	-0.168124
C	0.0817867369469138 0.7262275101911120 0.3621595750068898	0.076163
C	0.9194292066462859 0.9009546417049807 0.3613789945929844	0.080448
C	0.8754680644441416 0.9473478227825789 0.3676445057293283	-0.165177
C	0.7776227173955431 0.0510017417270039 0.3706422072956179	-0.113939
C	0.7311499043534412 0.0943432020307188 0.3712119340272247	-0.113845
C	0.6286307970028586 0.1834823154008894 0.3686579214034612	-0.168124
C	0.5817867319469092 0.2262275341911140 0.3621595750068898	0.076163
C	0.5805708353537105 0.4009546877049776 0.3613789945929844	0.080449
C	0.6245319775558619 0.4473478687825755 0.3676445057293283	-0.165178
C	0.7223772826044569 0.5510017467270083 0.3706422072956179	-0.113939
C	0.7688500956465588 0.5943432140307129 0.3712119340272247	-0.113845
C	0.8713692439971412 0.6834822684008890 0.3686579214034612	-0.168126
C	0.9182133100530872 0.7262275101911120 0.3621595750068898	0.076165
C	0.0805708403537144 0.9009546417049807 0.3613789945929844	0.080449
C	0.1245319565558565 0.9473478227825789 0.3676445057293283	-0.165178
C	0.2223772826044567 0.0510017417270039 0.3706422072956179	-0.113939
C	0.2688501156465606 0.0943432020307188 0.3712119340272247	-0.113845
C	0.3713692029971413 0.1834823154008894 0.3686579214034612	-0.168125
C	0.4182132680530902 0.2262275341911140 0.3621595750068898	0.076165
C	0.4194291646462894 0.5990453122950224 0.8613789635929858	0.080455
C	0.3754680224441381 0.5526521312174244 0.8676444437293308	-0.165178
C	0.2776226963955451 0.4489982532729922 0.8706422072956178	-0.113941
C	0.2311498843534394 0.4056567859692876 0.8712119650272244	-0.113842
C	0.1286307970028584 0.3165176845991109 0.8686579834034598	-0.168124
C	0.0817867369469138 0.2737724428088875 0.8621596370068882	0.076166
C	0.9194292066462859 0.0990453122950224 0.8613789635929858	0.080455
C	0.8754680644441416 0.0526521252174239 0.8676444437293308	-0.165178
C	0.7776227173955431 0.9489982992729955 0.8706422072956178	-0.113941
C	0.7311499043534412 0.9056568319692838 0.8712119650272244	-0.113841
C	0.6286307970028586 0.8165176845991107 0.8686579834034598	-0.168124
C	0.5817867319469092 0.7737724898088880 0.8621596370068882	0.076165
C	0.4181456563232490 0.4034366715923658 0.1248055113137058	0.095764
C	0.3744748326248745 0.4500923014318847 0.1271980183926276	-0.167786
C	0.2782370541140665 0.5509734498270090 0.1288308768241372	-0.117503
C	0.2316654504697086 0.5940766914567479 0.1270812202651175	-0.113846
C	0.1301977920474704 0.6821061685034805 0.1228494157309590	-0.163393
C	0.0834084961443958 0.7248479755532792 0.1226060186073674	0.090646
C	0.9181456983232446 0.9034366255923683 0.1248055113137058	0.095764
C	0.8744748746248784 0.9500922554318890 0.1271980183926276	-0.167786
C	0.7782370751140651 0.0509734448270051 0.1288308768241372	-0.117503
C	0.7316654704697110 0.0940766794567536 0.1270812202651175	-0.113846
C	0.6301977920474710 0.1821062155034811 0.1228494157309590	-0.163394
C	0.5834084911443921 0.2248479995532807 0.1226060186073674	0.090646
C	0.5818543436767518 0.5965633284076350 0.6248055503137053	0.095765
C	0.6255251673751251 0.5499076985681143 0.6271980343926292	-0.167786
C	0.7217629248859349 0.4490265501729908 0.6288308458241380	-0.117500
C	0.7683345295302890 0.4059233085432525 0.6270811742651206	-0.113858
C	0.8698022489525289 0.3178937844965187 0.6228494007309543	-0.163411
C	0.9165915508556043 0.2751519774467210 0.6226060026073665	0.090654
C	0.0818543486767552 0.0965633284076344 0.6248055503137053	0.095765
C	0.1255251463751207 0.0499076925681146 0.6271980343926292	-0.167786
C	0.2217629248859353 0.9490265961729948 0.6288308458241380	-0.117500
C	0.2683345495302915 0.9059233545432488 0.6270811742651206	-0.113859
C	0.3698022079525299 0.8178937844965192 0.6228494007309543	-0.163394
C	0.4165915088556082 0.7751520244467208 0.6226060026073665	0.090647
C	0.3504518492179230 0.5245759636994261 0.7491582284997566	0.115821
C	0.3028297866130303 0.4745796363193458 0.7501340432299044	0.070734
C	0.2056128143867478 0.3836106700531838 0.7487865028627185	0.066586
C	0.1548619260709696 0.3394149633740978 0.7470769474086941	0.099298
C	0.8504518902179238 0.0245759616994259 0.7491582284997566	0.115821
C	0.8028298496130316 0.9745796823193490 0.7501340432299044	0.070734
C	0.7056128143867479 0.8836106700531839 0.7487865028627185	0.066586
C	0.6548619470709679 0.8394149633740969 0.7470769474086941	0.099298
C	0.6495481507820761 0.4754240363005739 0.2491582134997592	0.115804
C	0.6971701503869684 0.5254203176806510 0.2501340282299070	0.070737
C	0.7943871856132521 0.6163893299468161 0.2487864878627218	0.066564
C	0.8451380529290321 0.6605850366259031 0.2470769324086961	0.099318
C	0.1495481407820761 0.9754239893005736 0.2491582134997592	0.115805
C	0.1971701923869643 0.0254203546806500 0.2501340282299070	0.070737
C	0.2943871856132522 0.1163893409468206 0.2487864878627218	0.066565
C	0.3451380739290301 0.1605850596259006 0.2470769324086961	0.099308
C	0.6495481507820761 0.5245759636994261 0.7491582284997566	0.115821
C	0.6971701503869684 0.4745796363193458 0.7501340432299044	0.070734
C	0.7943871856132521 0.3836106700531838 0.7487865028627185	0.066586
C	0.8451380529290321 0.3394149633740978 0.7470769474086941	0.099308
C	0.1495481407820761 0.0245759616994259 0.7491582284997566	0.115821
C	0.1971701923869643 0.9745796823193490 0.7501340432299044	0.070734
C	0.2943871856132522 0.8836106700531839 0.7487865028627185	0.066586
C	0.3451380739290301 0.8394149633740969 0.7470769474086941	0.099298
C	0.3504518492179230 0.4754240363005739 0.2491582134997592	0.115805
C	0.3028297866130303 0.5254203176806510 0.2501340282299070	0.070737
C	0.2056128143867478 0.6163893299468161 0.2487864878627218	0.066565
C	0.1548619260709696 0.6605850366259031 0.2470769324086962	0.099308
C	0.8504518902179238 0.9754239893005736 0.2491582134997592	0.115805
C	0.8028298496130316 0.0254203546806500 0.2501340282299070	0.070737
C	0.7056128143867479 0.1163893409468206 0.2487864878627218	0.066565
C	0.6548619470709679 0.1605850596259006 0.2470769324086961	0.099309
H	0.4359632554166714 0.6157280168471070 0.5286805400970221	0.125402
H	0.3605144298986968 0.5352478564977723 0.5264362240366947	0.102899
H	0.2947722972524002 0.4619761359475681 0.5290650042642729	0.084361
H	0.2157519643287893 0.3900922947843307 0.5270637202476030	0.104386
H	0.1469444958111258 0.3335764488842668 0.5236245633369812	0.120979
H	0.0635255031358846 0.2564128136435708 0.5282628508177007	0.126721
H	0.9359632554166709 0.1157279938471085 0.5286805400970221	0.125402
H	0.8605144298986966 0.0352478764977670 0.5264362240366947	0.102899
H	0.7947722352524028 0.9619761359475681 0.5290650042642729	0.084361
H	0.7157519433287909 0.8900923417843311 0.5270637202476030	0.104386
H	0.6469444958111258 0.8335764718842648 0.5236245633369812	0.120979
H	0.5635254881358870 0.7564128136435705 0.5282628508177007	0.126717
H	0.5640367445833291 0.3842720061528915 0.0286805100970192	0.125402
H	0.6394855701013034 0.4647521435022273 0.0264362240366949	0.102900
H	0.7052277647475972 0.5380238640524319 0.0290650662642708	0.084361
H	0.7842480566712091 0.6099077052156693 0.0270636892475962	0.104390
H	0.8530554621888707 0.6664235751157356 0.0236245943369795	0.120978
H	0.9364745538641094 0.7435871863564295 0.0282628198177020	0.126717
H	0.0640367295833237 0.8842720291528968 0.0286805100970192	0.125402
H	0.1394856011013021 0.9647520975022310 0.0264362240366948	0.102900
H	0.2052277237475979 0.0380238700524325 0.0290650662642708	0.084361
H	0.2842480566712089 0.1099076932156686 0.0270636892475962	0.104387
H	0.3530555041888742 0.1664235631157343 0.0236245943369795	0.120979
H	0.4364744708641135 0.2435871623564272 0.0282628198177020	0.126721
H	0.5618805462460413 0.6193612297948080 -0.0444030474619335	0.111298
H	0.6375359244804818 0.5406143595006699 -0.0291761418806914	0.106230
H	0.7062966179201906 0.4618728819835622 -0.0292391371433604	0.086275
H	0.7849611630578777 0.3894258914585572 -0.0291648016486808	0.104758
H	0.8558725973941591 0.3312096417503778 -0.0301592338881846	0.121987
H	0.9389162664172067 0.2546864613251297 -0.0447836027212728	0.110729
H	0.0618805312460364 0.1193612067948099 -0.0444030474619335	0.111298
H	0.1375359554804803 0.0406143795006640 -0.0291761418806914	0.106230
H	0.2062965769201913 0.9618728819835626 -0.0292391371433604	0.086275
H	0.2849611630578776 0.8894259384585581 -0.0291648016486808	0.104758
H	0.3558726393941632 0.8312096647503766 -0.0301592338881846	0.121987
H	0.4389161834172102 0.7546864613251297 -0.0447836027212728	0.110729
H	0.4381194537539587 0.3806387932051906 0.4555969735380644	0.111299
H	0.3624640755195187 0.4593856404993305 0.4708238831193073	0.106248
H	0.2937034440798069 0.5381271180164374 0.4707608398566410	0.086274
H	0.2150388579421206 0.6105741085414422 0.4708352423513160	0.104760
H	0.1441273606058366 0.6687903822496237 0.4698407161118111	0.121986
H	0.0610837905827876 0.7453135386748703 0.4552163812787333	0.110730
H	0.9381194537539587 0.8806388162051958 0.4555969735380644	0.111299
H	0.8624640755195182 0.9593855944993334 0.4708238831193073	0.106248
H	0.7937033820798094 0.0381271240164382 0.4707608398566410	0.086274
H	0.7150388369421223 0.1105740965414416 0.4708352423513160	0.104760
H	0.6441273606058374 0.1687903702496232 0.4698407161118111	0.121986
H	0.5610837755827897 0.2453135146748685 0.4552163812787333	0.110729
H	0.5618805462460413 0.3806387932051906 0.4555969735380644	0.111299
H	0.6375359244804818 0.4593856404993305 0.4708238831193073	0.106247
H	0.7062966179201906 0.5381271180164374 0.4707608398566410	0.086274
H	0.7849611630578777 0.6105741085414422 0.4708352423513160	0.104759
H	0.8558725973941591 0.6687903822496237 0.4698407161118111	0.121986
H	0.9389162664172067 0.7453135386748703 0.4552163812787333	0.110729
H	0.0618805312460364 0.8806388162051958 0.4555969735380644	0.111299
H	0.1375359554804803 0.9593855944993334 0.4708238831193073	0.106247
H	0.2062965769201913 0.0381271240164382 0.4707608398566410	0.086274
H	0.2849611630578776 0.1105740965414416 0.4708352423513160	0.104759
H	0.3558726393941632 0.1687903702496232 0.4698407161118111	0.121986
H	0.4389161834172102 0.2453135146748685 0.4552163812787333	0.110729
H	0.4381194537539587 0.6193612297948080 -0.0444030474619335	0.111298
H	0.3624640755195187 0.5406143595006699 -0.0291761418806914	0.106229
H	0.2937034440798069 0.4618728819835622 -0.0292391371433604	0.086274
H	0.2150388579421206 0.3894258914585572 -0.0291648016486808	0.104757
H	0.1441273606058366 0.3312096417503778 -0.0301592338881846	0.121987
H	0.0610837905827876 0.2546864613251297 -0.0447836027212728	0.110729
H	0.9381194537539587 0.1193612067948099 -0.0444030474619335	0.111297
H	0.8624640755195182 0.0406143795006640 -0.0291761418806914	0.106229
H	0.7937033820798094 0.9618728819835626 -0.0292391371433604	0.086274
H	0.7150388369421223 0.8894259384585581 -0.0291648016486808	0.104757
H	0.6441273606058374 0.8312096647503766 -0.0301592338881846	0.121987
H	0.5610837755827897 0.7546864613251297 -0.0447836027212728	0.110729
H	0.4359632554166714 0.3842720061528915 0.0286805100970192	0.125402
H	0.3605144298986968 0.4647521435022273 0.0264362240366949	0.102900
H	0.2947722972524002 0.5380238640524319 0.0290650662642708	0.084362
H	0.2157519643287893 0.6099077052156693 0.0270636892475962	0.104386
H	0.1469444958111258 0.6664235751157356 0.0236245943369795	0.120978
H	0.0635255031358846 0.7435871863564295 0.0282628198177020	0.126721
H	0.9359632554166709 0.8842720291528968 0.0286805100970192	0.125402
H	0.8605144298986966 0.9647520975022310 0.0264362240366949	0.102900
H	0.7947722352524028 0.0380238700524325 0.0290650662642708	0.084362
H	0.7157519433287909 0.1099076932156686 0.0270636892475962	0.104386
H	0.6469444958111258 0.1664235631157343 0.0236245943369795	0.120978
H	0.5635254881358870 0.2435871623564272 0.0282628198177020	0.126718
H	0.5640367445833291 0.6157280168471070 0.5286805400970221	0.125402
H	0.6394855701013034 0.5352478564977723 0.5264362240366947	0.102899
H	0.7052277647475972 0.4619761359475681 0.5290650042642729	0.084361
H	0.7842480566712091 0.3900922947843307 0.5270637202476030	0.104388
H	0.8530554621888707 0.3335764488842668 0.5236245633369812	0.120978
H	0.9364745538641094 0.2564128136435708 0.5282628508177007	0.126716
H	0.0640367295833237 0.1157279938471085 0.5286805400970221	0.125402
H	0.1394856011013021 0.0352478764977670 0.5264362240366947	0.102899
H	0.2052277237475979 0.9619761359475681 0.5290650042642729	0.084361
H	0.2842480566712089 0.8900923417843311 0.5270637202476030	0.104385
H	0.3530555041888742 0.8335764718842648 0.5236245633369812	0.120979
H	0.4364744708641135 0.7564128136435705 0.5282628508177007	0.126721
Co	0.5000000000000000 0.6874770003668365 0.7316856281324555	0.530418
Co	0.0000000000000000 0.1874770003668363 0.7316856281324555	0.530418
Co	0.5000000000000000 0.3125229996331638 0.2316856131324577	0.530419
Co	0.0000000000000000 0.8125229526331632 0.2316856131324577	0.530419
F	0.5000000000000000 0.6860316361340592 0.5089282291158421	-0.649861
F	0.0000000000000000 0.1860316701340620 0.5089282291158421	-0.649861
F	0.5000000000000000 0.3139683408659426 0.0089281981158433	-0.649861
F	0.0000000000000000 0.8139683178659441 0.0089281981158433	-0.649861
F	0.4439060679911396 0.7472543964791144 0.2866025116413033	-0.591158
F	0.5557497979998645 0.6218822354335662 0.2847410710181159	-0.588455
F	0.9439060679911394 0.2472544424791114 0.2866025116413033	-0.591158
F	0.0557497979998646 0.1218822474335609 0.2847410710181159	-0.588455
F	0.5560939320088606 0.2527455575208887 0.7866025266413013	-0.591159
F	0.4442502020001354 0.3781177645664333 0.7847410860181131	-0.588453
F	0.0560939110088619 0.7527456035208856 0.7866025266413013	-0.591159
F	0.9442502020001355 0.8781178105664376 0.7847410860181131	-0.588453
F	0.5560939320088606 0.7472543964791144 0.2866025116413033	-0.591158
F	0.4442502020001354 0.6218822354335662 0.2847410710181159	-0.588455
F	0.0560939110088619 0.2472544424791114 0.2866025116413033	-0.591158
F	0.9442502020001355 0.1218822474335609 0.2847410710181159	-0.588455
F	0.4439060679911396 0.2527455575208887 0.7866025266413013	-0.591159
F	0.5557497979998645 0.3781177645664333 0.7847410860181131	-0.588453
F	0.9439060679911394 0.7527456035208856 0.7866025266413013	-0.591159
F	0.0557497979998646 0.8781178105664376 0.7847410860181131	-0.588453
O	0.5000000000000000 0.6861165053335977 0.0854048909466071	-0.811667
O	0.0000000000000000 0.1861165393336009 0.0854048909466071	-0.811667
O	0.5000000000000000 0.3138834716664037 0.5854049139466059	-0.811667
O	0.0000000000000000 0.8138834486664056 0.5854049139466059	-0.811667
N	0.4408419423735729 0.6211422402869820 0.7412826588105751	-0.169069
N	0.5599895372826471 0.7529430948875697 0.7409652854213116	-0.179273
N	0.9408419833735722 0.1211422512869798 0.7412826588105751	-0.169070
N	0.0599895532826487 0.2529430478875694 0.7409652854213116	-0.179274
N	0.5591580576264277 0.3788577367130188 0.2412826438105781	-0.169071
N	0.4400104627173528 0.2470569281124285 0.2409652704213139	-0.179273
N	0.0591580576264273 0.8788577597130180 0.2412826438105781	-0.169071
N	0.9400104627173529 0.7470569051124303 0.2409652704213139	-0.179272
N	0.5591580576264277 0.6211422402869820 0.7412826588105751	-0.169068
N	0.4400104627173528 0.7529430948875697 0.7409652854213116	-0.179272
N	0.0591580576264273 0.1211422512869798 0.7412826588105751	-0.169068
N	0.9400104627173529 0.2529430478875694 0.7409652854213116	-0.179271
N	0.4408419423735729 0.3788577367130188 0.2412826438105781	-0.169070
N	0.5599895372826471 0.2470569281124285 0.2409652704213139	-0.179269
N	0.9408419833735722 0.8788577597130180 0.2412826438105781	-0.169070
N	0.0599895532826487 0.7470569051124303 0.2409652704213139	-0.179271
V	0.5000000000000000 0.6849970335399554 0.2539407205291864	2.231282
V	0.0000000000000000 0.1849970795399517 0.2539407205291865	2.231282
V	0.5000000000000000 0.3150029204600479 0.7539407355291845	2.231282
V	0.0000000000000000 0.8150029664600446 0.7539407355291845	2.231282
	  	
