#======================================================================

# CRYSTAL DATA

#----------------------------------------------------------------------

data_VESTA_phase_1


_pd_phase_name                         VOFFIVE_2_Cd
_cell_length_a                         14.30336
_cell_length_b                         14.30336
_cell_length_c                         8.06053
_cell_angle_alpha                      90
_cell_angle_beta                       90
_cell_angle_gamma                      90
_symmetry_space_group_name_H-M         P 1
_symmetry_Int_Tables_number            1

loop_
_symmetry_equiv_pos_as_xyz
   x, y, z

loop_
   _atom_site_label
   _atom_site_fract_x
   _atom_site_fract_y
   _atom_site_fract_z
   _atom_site_charge
C	0.5306063629815336 0.7108626338052680 0.1335803542483379	0.099591
C	0.5316457409336608 0.8078739420486098 0.1387694883731015	-0.166636
C	0.4693936370184664 0.2891374011947315 0.1335803542483379	0.099589
C	0.4683542590663393 0.1921260929513895 0.1387694883731015	-0.166633
C	0.2891374011947315 0.5306063629815336 0.1335803542483379	0.099592
C	0.1921260929513895 0.5316457409336608 0.1387694883731015	-0.166636
C	0.7108626338052680 0.4693936370184664 0.1335803542483379	0.099589
C	0.8078739420486098 0.4683542590663393 0.1387694883731015	-0.166633
C	0.4697620819558464 0.7106037931565993 0.8657567615368905	0.101146
C	0.4683564177109049 0.8076759603081434 0.8608562325833656	-0.166632
C	0.5302379180441537 0.2893962418434071 0.8657567615368905	0.101143
C	0.5316435822890953 0.1923240746918559 0.8608562325833656	-0.166630
C	0.7106037931565993 0.5302379180441537 0.8657567615368905	0.101144
C	0.8076759603081434 0.5316435822890953 0.8608562325833656	-0.166630
C	0.2893962418434071 0.4697620819558464 0.8657567615368905	0.101146
C	0.1923240746918559 0.4683564177109049 0.8608562325833656	-0.166632
C	0.5000886665739377 0.1415662643371464 0.9997623151812255	0.168562
C	0.5000810299677397 0.0425946824844707 0.9997357672669820	-0.093565
C	0.4999113334260624 0.8584337356628536 0.9997623151812255	0.168531
C	0.4999189700322604 0.9574053095155287 0.9997357672669820	-0.093324
C	0.8584337356628536 0.5000886665739377 0.9997623151812255	0.168562
C	0.9574053095155287 0.5000810299677397 0.9997357672669820	-0.093565
C	0.1415662643371464 0.4999113334260624 0.9997623151812255	0.168531
C	0.0425946824844707 0.4999189700322604 0.9997357672669820	-0.093324
H	0.5540462945998078 0.6690921194116694 0.2392093736336285	0.103105
H	0.5568913454658712 0.8441243915725112 0.2487102661006886	0.127015
H	0.4459537054001925 0.3309078105883249 0.2392093736336285	0.103105
H	0.4431086545341288 0.1558756084274887 0.2487102661006886	0.127016
H	0.3309078105883249 0.5540462945998078 0.2392093736336285	0.103105
H	0.1558756084274887 0.5568913454658712 0.2487102661006886	0.127015
H	0.6690921194116694 0.4459537054001925 0.2392093736336285	0.103105
H	0.8441243915725112 0.4431086545341288 0.2487102661006886	0.127016
H	0.4468272156581185 0.6684899599446907 0.7600741846220492	0.108514
H	0.4430389874929341 0.8438910680961881 0.7509723180130192	0.126848
H	0.5531727843418816 0.3315099700553106 0.7600741846220492	0.108514
H	0.5569610125070658 0.1561089319038119 0.7509723180130192	0.126849
H	0.6684899599446907 0.5531727843418816 0.7600741846220492	0.108514
H	0.8438910680961881 0.5569610125070658 0.7509723180130192	0.126849
H	0.3315099700553106 0.4468272156581185 0.7600741846220492	0.108514
H	0.1561089319038119 0.4430389874929341 0.7509723180130192	0.126847
Cd	0.5000000000000000 0.5000000000000000 0.0003658698214785	0.860921
V	0.5000000000000000 0.5000000000000000 0.4822786780128593	2.282249
F	0.5000000000000000 0.5000000000000000 0.7289138418375324	-0.626730
F	0.5912436415583373 0.5918704769346499 0.5056761022917291	-0.594385
F	0.4081295580653495 0.5912436415583373 0.5056761022917291	-0.594385
F	0.4087563934416620 0.4081295580653495 0.5056761022917291	-0.594385
F	0.5918704769346499 0.4087563934416620 0.5056761022917291	-0.594385
O	0.5000000000000000 0.5000000000000000 0.2769006510884844	-0.833143
N	0.4997248800060652 0.3365508213931884 0.9997821059588872	-0.234494
N	0.5002751199939349 0.6634492136068109 0.9997821059588872	-0.234493
N	0.6634492136068109 0.4997248800060652 0.9997821059588872	-0.234494
N	0.3365508213931884 0.5002751199939349 0.9997821059588872	-0.234493
	  	
