#======================================================================

# CRYSTAL DATA

#----------------------------------------------------------------------

data_VESTA_phase_1


_pd_phase_name                         VOFFIVE_5_Cu_i
_cell_length_a                         19.74542
_cell_length_b                         19.74542
_cell_length_c                         15.73476
_cell_angle_alpha                      90
_cell_angle_beta                       90
_cell_angle_gamma                      90
_symmetry_space_group_name_H-M         P 1
_symmetry_Int_Tables_number            1

loop_
_symmetry_equiv_pos_as_xyz
   x, y, z

loop_
   _atom_site_label
   _atom_site_fract_x
   _atom_site_fract_y
   _atom_site_fract_z
   _atom_site_charge
F	0.3216164864658475 0.1888437122865507 0.3483599846576493	-0.595950
F	0.1783835015341514 0.3111562997134432 0.3483599846576493	-0.595948
F	0.3111562997134432 0.3216164864658475 0.3483599846576493	-0.595949
F	0.1888437122865507 0.1783835015341514 0.3483599846576493	-0.595950
F	0.6790535874343124 0.6880653742855317 0.1457205097542622	-0.595782
F	0.8209464125656876 0.8119346257144683 0.1457205097542622	-0.595781
F	0.6880653742855317 0.8209464125656876 0.1457205097542622	-0.595781
F	0.8119346257144683 0.6790535874343124 0.1457205097542622	-0.595782
F	0.6790535874343124 0.8119346257144683 0.6457205247542601	-0.595783
F	0.8209464125656876 0.6880653742855317 0.6457205247542601	-0.595784
F	0.6880653742855317 0.6790535874343124 0.6457205247542601	-0.595784
F	0.8119346257144683 0.8209464125656876 0.6457205247542601	-0.595783
F	0.3216164864658475 0.3111562997134432 0.8483599536576498	-0.595949
F	0.1783835015341514 0.1888437122865507 0.8483599536576498	-0.595950
F	0.3111562997134432 0.1783835015341514 0.8483599536576498	-0.595950
F	0.1888437122865507 0.3216164864658475 0.8483599536576498	-0.595949
F	0.2500000000000000 0.2500000000000000 0.2346724830239297	-0.653308
F	0.7500000000000000 0.7500000000000000 0.0321887544876161	-0.652769
F	0.7500000000000000 0.7500000000000000 0.5321887504876157	-0.652775
F	0.2500000000000000 0.2500000000000000 0.7346725290239265	-0.653309
O	0.2500000000000000 0.2500000000000000 0.4638617673490362	-0.845585
O	0.7500000000000000 0.7500000000000000 0.2613225249460502	-0.845988
O	0.7500000000000000 0.7500000000000000 0.7613224939460512	-0.846020
O	0.2500000000000000 0.2500000000000000 0.9638617673490366	-0.845587
N	0.3533365940488498 0.2480450110249952 0.6011689453940616	-0.222486
N	0.1466633819511553 0.2519550129750068 0.6011689453940616	-0.222486
N	0.2519550129750068 0.3533365940488498 0.6011689453940616	-0.222485
N	0.2480450110249952 0.1466633819511553 0.6011689453940616	-0.222486
N	0.6467011305496807 0.7468509578432626 0.8985159776247391	-0.222437
N	0.8532988214503224 0.7531490421567374 0.8985159776247391	-0.222437
N	0.7468509578432626 0.8532988214503224 0.8985159776247391	-0.222437
N	0.7531490421567374 0.6467011305496807 0.8985159776247391	-0.222437
N	0.6467011305496807 0.7531490421567374 0.3985159776247387	-0.222441
N	0.8532988214503224 0.7468509578432626 0.3985159776247387	-0.222441
N	0.7468509578432626 0.6467011305496807 0.3985159776247387	-0.222441
N	0.7531490421567374 0.8532988214503224 0.3985159776247387	-0.222441
N	0.3533365940488498 0.2519550129750068 0.1011689533940623	-0.222485
N	0.1466633819511553 0.2480450110249952 0.1011689533940623	-0.222485
N	0.2519550129750068 0.1466633819511553 0.1011689533940623	-0.222485
N	0.2480450110249952 0.3533365940488498 0.1011689533940623	-0.222485
C	0.3862310574036965 0.2189080672894216 0.6666220879726985	0.103091
C	0.4565018433323375 0.2172024906414470 0.6703920627588413	-0.175386
C	0.4949275817859554 0.2472586940938969 0.6055170209555553	0.105562
C	0.4594470575789888 0.2773925077934722 0.5380484917271876	-0.178327
C	0.3891258563257480 0.2765405466507143 0.5377180409292363	0.103383
C	0.5694819211315946 0.2478419860828900 0.6085448335187826	0.055389
C	0.6059072762943444 0.1912737216141842 0.6377032512750955	-0.131420
C	0.6762873720412826 0.1920480452539127 0.6400201358546955	-0.124038
C	0.7127090050432494 0.2497796036808209 0.6147268928645419	0.066847
C	0.6762243809587146 0.3066449524811091 0.5867118620455585	-0.118101
C	0.6058975428981075 0.3054360298525642 0.5828537501373250	-0.127381
C	0.1137689545963046 0.2810919087105763 0.6666220879726985	0.103092
C	0.0434981716676602 0.2827975333585480 0.6703920627588413	-0.175386
C	0.0050724262140454 0.2527413059061029 0.6055170209555553	0.105563
C	0.0405529634210093 0.2226074922065278 0.5380484917271876	-0.178328
C	0.1108741676742540 0.2234594533492856 0.5377180409292363	0.103384
C	0.9305180308684086 0.2521580379171048 0.6085448335187826	0.055387
C	0.8940926757056588 0.3087262783858160 0.6377032512750955	-0.131412
C	0.8237126279587174 0.3079519667460881 0.6400201358546955	-0.124038
C	0.7872909949567506 0.2502204203191739 0.6147268928645419	0.066847
C	0.8237756190412854 0.1933550595188920 0.5867118620455585	-0.118102
C	0.8941024571018925 0.1945639461474337 0.5828537501373250	-0.127381
C	0.2810919087105763 0.3862310574036965 0.6666220879726985	0.103092
C	0.2827975333585480 0.4565018433323375 0.6703920627588413	-0.175385
C	0.2527413059061029 0.4949275817859554 0.6055170209555553	0.105562
C	0.2226074922065278 0.4594470575789888 0.5380484917271876	-0.178327
C	0.2234594533492856 0.3891258563257480 0.5377180409292363	0.103383
C	0.2521580379171048 0.5694819211315946 0.6085448335187826	0.055389
C	0.3087262783858160 0.6059072762943444 0.6377032512750955	-0.131421
C	0.3079519667460881 0.6762873720412826 0.6400201358546955	-0.124038
C	0.2502204203191739 0.7127090050432494 0.6147268928645419	0.066848
C	0.1933550595188920 0.6762243809587146 0.5867118620455585	-0.118101
C	0.1945639461474337 0.6058975428981075 0.5828537501373250	-0.127381
C	0.2189080672894216 0.1137689545963046 0.6666220879726985	0.103093
C	0.2172024906414470 0.0434981716676602 0.6703920627588413	-0.175387
C	0.2472586940938969 0.0050724262140454 0.6055170209555553	0.105562
C	0.2773925077934722 0.0405529634210093 0.5380484917271876	-0.178327
C	0.2765405466507143 0.1108741676742540 0.5377180409292363	0.103384
C	0.2478419860828900 0.9305180308684086 0.6085448335187826	0.055387
C	0.1912737216141842 0.8940926757056588 0.6377032512750955	-0.131412
C	0.1920480452539127 0.8237126279587174 0.6400201358546955	-0.124038
C	0.2497796036808209 0.7872909949567506 0.6147268928645419	0.066847
C	0.3066449524811091 0.8237756190412854 0.5867118620455585	-0.118101
C	0.3054360298525642 0.8941024571018925 0.5828537501373250	-0.127382
C	0.6132583457161060 0.7178150429107480 0.8334786545459237	0.103410
C	0.5430258960514115 0.7167047106228938 0.8298881265728129	-0.178482
C	0.5050888748230831 0.7471647935523826 0.8949132934779349	0.107069
C	0.5410756350993134 0.7769716301035144 0.9621985260964381	-0.177950
C	0.6114422835945489 0.7755464514748905 0.9623410782663444	0.103327
C	0.4305306314156496 0.7480437028119796 0.8919278761645670	0.053357
C	0.3941564485384497 0.6914696365042921 0.8626487995805903	-0.130562
C	0.3237949082027393 0.6921644774018684 0.8601424938914378	-0.123436
C	0.2872958527456052 0.7498517254053211 0.8853814294175328	0.066496
C	0.3237181802707432 0.8067628172175962 0.9134319308058572	-0.118468
C	0.3940575458450454 0.8056340019007239 0.9174831698346394	-0.126664
C	0.8867416072838936 0.7821849570892520 0.8334786545459237	0.103409
C	0.9569741039485885 0.7832952893771062 0.8298881265728129	-0.178480
C	0.9949111251769169 0.7528352064476174 0.8949132934779349	0.107068
C	0.9589243649006867 0.7230283698964856 0.9621985260964381	-0.177951
C	0.8885577164054511 0.7244535485251095 0.9623410782663444	0.103326
C	0.0694693685843502 0.7519562971880204 0.8919278761645670	0.053358
C	0.1058435274615555 0.8085304114957048 0.8626487995805903	-0.130562
C	0.1762050917972607 0.8078355705981356 0.8601424938914378	-0.123435
C	0.2127041472543948 0.7501482745946789 0.8853814294175328	0.066495
C	0.1762818437292587 0.6932372307824077 0.9134319308058572	-0.118468
C	0.1059424541549546 0.6943660460992730 0.9174831698346394	-0.126663
C	0.7178150429107480 0.8867416072838936 0.8334786545459237	0.103409
C	0.7167047106228938 0.9569741039485885 0.8298881265728129	-0.178481
C	0.7471647935523826 0.9949111251769169 0.8949132934779349	0.107068
C	0.7769716301035144 0.9589243649006867 0.9621985260964381	-0.177949
C	0.7755464514748905 0.8885577164054511 0.9623410782663444	0.103327
C	0.7480437028119796 0.0694693685843502 0.8919278761645670	0.053358
C	0.6914696365042921 0.1058435274615555 0.8626487995805903	-0.130562
C	0.6921644774018684 0.1762050917972607 0.8601424938914378	-0.123435
C	0.7498517254053211 0.2127041472543948 0.8853814294175328	0.066496
C	0.8067628172175962 0.1762818437292587 0.9134319308058572	-0.118468
C	0.8056340019007239 0.1059424541549546 0.9174831698346394	-0.126664
C	0.7821849570892520 0.6132583457161060 0.8334786545459237	0.103411
C	0.7832952893771062 0.5430258960514115 0.8298881265728129	-0.178480
C	0.7528352064476174 0.5050888748230831 0.8949132934779349	0.107068
C	0.7230283698964856 0.5410756350993134 0.9621985260964381	-0.177951
C	0.7244535485251095 0.6114422835945489 0.9623410782663444	0.103327
C	0.7519562971880204 0.4305306314156496 0.8919278761645670	0.053358
C	0.8085304114957048 0.3941564485384497 0.8626487995805903	-0.130563
C	0.8078355705981356 0.3237949082027393 0.8601424938914378	-0.123435
C	0.7501482745946789 0.2872958527456052 0.8853814294175328	0.066495
C	0.6932372307824077 0.3237181802707432 0.9134319308058572	-0.118468
C	0.6943660460992730 0.3940575458450454 0.9174831698346394	-0.126664
C	0.6132583457161060 0.7821849570892520 0.3334786865459266	0.103414
C	0.5430258960514115 0.7832952893771062 0.3298880955728137	-0.178489
C	0.5050888748230831 0.7528352064476174 0.3949133554779330	0.107108
C	0.5410756350993133 0.7230283698964856 0.4621984950964390	-0.177985
C	0.6114422835945489 0.7244535485251095 0.4623410782663443	0.103347
C	0.4305306314156496 0.7519562971880204 0.3919279071645662	0.053348
C	0.3941564485384497 0.8085304114957048 0.3626488625805921	-0.130562
C	0.3237949082027393 0.8078355705981356 0.3601424938914375	-0.123435
C	0.2872958527456052 0.7501482745946789 0.3853814294175326	0.066495
C	0.3237181802707432 0.6932372307824077 0.4134319308058573	-0.118468
C	0.3940575458450454 0.6943660460992730 0.4174832008346456	-0.126662
C	0.8867416072838936 0.7178150429107480 0.3334786865459266	0.103414
C	0.9569741039485885 0.7167047106228938 0.3298880955728137	-0.178490
C	0.9949111251769169 0.7471647935523826 0.3949133554779330	0.107107
C	0.9589243649006866 0.7769716301035144 0.4621984950964390	-0.177984
C	0.8885577164054511 0.7755464514748905 0.4623410782663443	0.103346
C	0.0694693685843502 0.7480437028119796 0.3919279071645662	0.053348
C	0.1058435274615555 0.6914696365042921 0.3626488625805921	-0.130561
C	0.1762050917972607 0.6921644774018684 0.3601424938914375	-0.123434
C	0.2127041472543948 0.7498517254053211 0.3853814294175326	0.066495
C	0.1762818437292587 0.8067628172175962 0.4134319308058573	-0.118467
C	0.1059424541549546 0.8056340019007239 0.4174832008346456	-0.126662
C	0.7178150429107480 0.6132583457161060 0.3334786865459266	0.103415
C	0.7167047106228938 0.5430258960514115 0.3298880955728137	-0.178490
C	0.7471647935523826 0.5050888748230831 0.3949133554779330	0.107107
C	0.7769716301035144 0.5410756350993133 0.4621984950964390	-0.177984
C	0.7755464514748905 0.6114422835945489 0.4623410782663443	0.103348
C	0.7480437028119796 0.4305306314156496 0.3919279071645662	0.053348
C	0.6914696365042921 0.3941564485384497 0.3626488625805921	-0.130562
C	0.6921644774018684 0.3237949082027393 0.3601424938914375	-0.123435
C	0.7498517254053211 0.2872958527456052 0.3853814294175326	0.066495
C	0.8067628172175962 0.3237181802707432 0.4134319308058573	-0.118468
C	0.8056340019007239 0.3940575458450454 0.4174832008346456	-0.126663
C	0.7821849570892520 0.8867416072838936 0.3334786865459266	0.103415
C	0.7832952893771062 0.9569741039485885 0.3298880955728137	-0.178489
C	0.7528352064476174 0.9949111251769169 0.3949133554779330	0.107107
C	0.7230283698964856 0.9589243649006867 0.4621984950964390	-0.177984
C	0.7244535485251095 0.8885577164054511 0.4623410782663443	0.103347
C	0.7519562971880204 0.0694693685843502 0.3919279071645662	0.053348
C	0.8085304114957048 0.1058435274615555 0.3626488625805921	-0.130561
C	0.8078355705981356 0.1762050917972607 0.3601424938914375	-0.123434
C	0.7501482745946789 0.2127041472543948 0.3853814294175326	0.066495
C	0.6932372307824077 0.1762818437292587 0.4134319308058573	-0.118467
C	0.6943660460992730 0.1059424541549546 0.4174832008346456	-0.126662
C	0.3862310574036965 0.2810919087105763 0.1666220879726985	0.103091
C	0.4565018433323375 0.2827975333585480 0.1703920937588402	-0.175383
C	0.4949275817859554 0.2527413059061029 0.1055169669555581	0.105566
C	0.4594470575789888 0.2226074922065278 0.0380485157271893	-0.178327
C	0.3891258563257480 0.2234594533492856 0.0377180639292346	0.103383
C	0.5694819211315946 0.2521580379171048 0.1085448025187834	0.055389
C	0.6059072762943444 0.3087262783858160 0.1377032042750953	-0.131421
C	0.6762873720412826 0.3079519667460881 0.1400201518546968	-0.124036
C	0.7127090050432494 0.2502204203191739 0.1147269008645427	0.066847
C	0.6762243809587146 0.1933550595188920 0.0867118850455569	-0.118101
C	0.6058975428981075 0.1945639461474337 0.0828537261373232	-0.127382
C	0.1137689545963046 0.2189080672894216 0.1666220879726985	0.103092
C	0.0434981716676602 0.2172024906414470 0.1703920937588402	-0.175386
C	0.0050724262140454 0.2472586940938969 0.1055169669555581	0.105566
C	0.0405529634210093 0.2773925077934722 0.0380485157271893	-0.178325
C	0.1108741676742540 0.2765405466507143 0.0377180639292346	0.103383
C	0.9305180308684086 0.2478419860828900 0.1085448025187834	0.055386
C	0.8940926757056588 0.1912737216141842 0.1377032042750953	-0.131412
C	0.8237126279587174 0.1920480452539127 0.1400201518546968	-0.124037
C	0.7872909949567506 0.2497796036808209 0.1147269008645427	0.066847
C	0.8237756190412854 0.3066449524811091 0.0867118850455569	-0.118101
C	0.8941024571018925 0.3054360298525642 0.0828537261373232	-0.127383
C	0.2810919087105763 0.1137689545963046 0.1666220879726985	0.103093
C	0.2827975333585480 0.0434981716676602 0.1703920937588402	-0.175384
C	0.2527413059061029 0.0050724262140454 0.1055169669555581	0.105566
C	0.2226074922065278 0.0405529634210093 0.0380485157271893	-0.178326
C	0.2234594533492856 0.1108741676742540 0.0377180639292346	0.103384
C	0.2521580379171048 0.9305180308684086 0.1085448025187834	0.055386
C	0.3087262783858160 0.8940926757056588 0.1377032042750953	-0.131412
C	0.3079519667460881 0.8237126279587174 0.1400201518546968	-0.124037
C	0.2502204203191739 0.7872909949567506 0.1147269008645427	0.066847
C	0.1933550595188920 0.8237756190412854 0.0867118850455569	-0.118101
C	0.1945639461474337 0.8941024571018925 0.0828537261373232	-0.127383
C	0.2189080672894216 0.3862310574036965 0.1666220879726985	0.103091
C	0.2172024906414470 0.4565018433323375 0.1703920937588402	-0.175384
C	0.2472586940938969 0.4949275817859554 0.1055169669555581	0.105566
C	0.2773925077934722 0.4594470575789888 0.0380485157271893	-0.178325
C	0.2765405466507143 0.3891258563257480 0.0377180639292346	0.103384
C	0.2478419860828900 0.5694819211315946 0.1085448025187834	0.055389
C	0.1912737216141842 0.6059072762943444 0.1377032042750953	-0.131421
C	0.1920480452539127 0.6762873720412826 0.1400201518546968	-0.124036
C	0.2497796036808209 0.7127090050432494 0.1147269008645427	0.066847
C	0.3066449524811091 0.6762243809587146 0.0867118850455569	-0.118101
C	0.3054360298525642 0.6058975428981075 0.0828537261373232	-0.127382
H	0.3549937788413434 0.1982306900827516 0.7176899937877919	0.111062
H	0.4808940152833084 0.1942099455455425 0.7254242894939770	0.115536
H	0.4862452304464323 0.3003270017594709 0.4847803518667086	0.114945
H	0.3602549018311401 0.2983077672377411 0.4851800534538771	0.105185
H	0.5785364863803907 0.1458516567153164 0.6572413424177855	0.099921
H	0.7036110920865660 0.1476988983920159 0.6629867851597406	0.101523
H	0.7034289104023639 0.3515382602758082 0.5652305871005227	0.102220
H	0.5785721430778492 0.3500735153914661 0.5606960605462776	0.103714
H	0.1450062331586577 0.3017693099172483 0.7176899937877919	0.111063
H	0.0191060147166941 0.3057900304544555 0.7254242894939770	0.115534
H	0.0137547725535645 0.1996729982405293 0.4847803518667086	0.114946
H	0.1397450861688591 0.2016922327622590 0.4851800534538771	0.105185
H	0.9214634656196125 0.3541483552846847 0.6572413424177855	0.099915
H	0.7963889079134340 0.3523010896079830 0.6629867851597406	0.101523
H	0.7965710895976361 0.1484617397241918 0.5652305871005227	0.102217
H	0.9214278569221508 0.1499264846085339 0.5606960605462776	0.103713
H	0.3017693099172483 0.3549937788413434 0.7176899937877919	0.111062
H	0.3057900304544555 0.4808940152833084 0.7254242894939770	0.115535
H	0.1996729982405293 0.4862452304464323 0.4847803518667086	0.114946
H	0.2016922327622590 0.3602549018311401 0.4851800534538771	0.105185
H	0.3541483552846847 0.5785364863803907 0.6572413424177855	0.099922
H	0.3523010896079830 0.7036110920865660 0.6629867851597406	0.101524
H	0.1484617397241918 0.7034289104023639 0.5652305871005227	0.102219
H	0.1499264846085339 0.5785721430778492 0.5606960605462776	0.103714
H	0.1982306900827516 0.1450062331586577 0.7176899937877919	0.111063
H	0.1942099455455425 0.0191060147166940 0.7254242894939770	0.115535
H	0.3003270017594709 0.0137547725535645 0.4847803518667086	0.114946
H	0.2983077672377411 0.1397450861688591 0.4851800534538771	0.105185
H	0.1458516567153164 0.9214634656196125 0.6572413424177855	0.099915
H	0.1476988983920159 0.7963889079134340 0.6629867851597406	0.101522
H	0.3515382602758082 0.7965710895976361 0.5652305871005227	0.102218
H	0.3500735153914661 0.9214278569221508 0.5606960605462776	0.103715
H	0.6438550639868420 0.6963134124881044 0.7823511228721783	0.105728
H	0.5183082580498438 0.6938391966029744 0.7750259692251696	0.116127
H	0.5146011219069409 0.8000917582582875 0.0156263375363148	0.115324
H	0.6409416673603523 0.7966174948576521 0.0147979153075403	0.111561
H	0.4215999401219040 0.6460855794939970 0.8431599520774692	0.099576
H	0.2965632089296290 0.6478058372603769 0.8370428660892071	0.101260
H	0.2964285232634028 0.8516418737246191 0.9347977484549744	0.102458
H	0.4212969710654011 0.8503131724898970 0.9396999924269902	0.104145
H	0.8561449830131583 0.8036866355118996 0.7823511228721783	0.105728
H	0.9816917419501562 0.8061608033970256 0.7750259692251696	0.116126
H	0.9853988310930588 0.6999082417417125 0.0156263375363148	0.115324
H	0.8590582846396508 0.7033825051423479 0.0147979153075403	0.111560
H	0.0784000838780908 0.8539144205060030 0.8431599520774692	0.099576
H	0.2034367910703709 0.8521941627396231 0.8370428660892071	0.101260
H	0.2035714767365971 0.6483580782753769 0.9347977484549744	0.102456
H	0.0787030409346000 0.6496867795100990 0.9396999924269902	0.104146
H	0.6963134124881044 0.8561449830131583 0.7823511228721783	0.105728
H	0.6938391966029744 0.9816917419501562 0.7750259692251696	0.116127
H	0.8000917582582875 0.9853988310930588 0.0156263375363148	0.115323
H	0.7966174948576521 0.8590582846396508 0.0147979153075403	0.111560
H	0.6460855794939970 0.0784000838780908 0.8431599520774692	0.099576
H	0.6478058372603769 0.2034367910703709 0.8370428660892071	0.101261
H	0.8516418737246191 0.2035714767365971 0.9347977484549744	0.102458
H	0.8503131724898970 0.0787030409346000 0.9396999924269902	0.104146
H	0.8036866355118996 0.6438550639868420 0.7823511228721783	0.105728
H	0.8061608033970256 0.5183082580498438 0.7750259692251696	0.116127
H	0.6999082417417125 0.5146011219069409 0.0156263375363148	0.115325
H	0.7033825051423479 0.6409416673603523 0.0147979153075403	0.111561
H	0.8539144205060030 0.4215999401219040 0.8431599520774692	0.099577
H	0.8521941627396231 0.2965632089296290 0.8370428660892071	0.101260
H	0.6483580782753769 0.2964285232634028 0.9347977484549744	0.102456
H	0.6496867795100990 0.4212969710654011 0.9396999924269902	0.104146
H	0.6438550639868420 0.8036866355118996 0.2823510918721793	0.105732
H	0.5183082580498438 0.8061608033970256 0.2750259692251695	0.116127
H	0.5146011219069409 0.6999082417417125 0.5156263565363203	0.115314
H	0.6409416673603523 0.7033825051423479 0.5147978863075415	0.111557
H	0.4215999401219040 0.8539144205060030 0.3431599520774690	0.099576
H	0.2965632089296290 0.8521941627396231 0.3370428970892134	0.101261
H	0.2964285232634028 0.6483580782753769 0.4347977484549743	0.102456
H	0.4212969710654011 0.6496867795100990 0.4397000544269881	0.104147
H	0.8561449830131583 0.6963134124881044 0.2823510918721793	0.105731
H	0.9816917419501562 0.6938391966029744 0.2750259692251695	0.116128
H	0.9853988310930588 0.8000917582582875 0.5156263565363203	0.115313
H	0.8590582846396508 0.7966174948576521 0.5147978863075415	0.111557
H	0.0784000838780908 0.6460855794939970 0.3431599520774690	0.099576
H	0.2034367910703709 0.6478058372603769 0.3370428970892134	0.101260
H	0.2035714767365971 0.8516418737246191 0.4347977484549743	0.102457
H	0.0787030409346000 0.8503131724898970 0.4397000544269881	0.104147
H	0.6963134124881044 0.6438550639868420 0.2823510918721793	0.105732
H	0.6938391966029744 0.5183082580498438 0.2750259692251695	0.116129
H	0.8000917582582875 0.5146011219069409 0.5156263565363203	0.115314
H	0.7966174948576521 0.6409416673603523 0.5147978863075415	0.111557
H	0.6460855794939970 0.4215999401219040 0.3431599520774690	0.099576
H	0.6478058372603769 0.2965632089296290 0.3370428970892134	0.101261
H	0.8516418737246191 0.2964285232634028 0.4347977484549743	0.102457
H	0.8503131724898970 0.4212969710654011 0.4397000544269881	0.104148
H	0.8036866355118996 0.8561449830131583 0.2823510918721793	0.105731
H	0.8061608033970256 0.9816917419501562 0.2750259692251695	0.116127
H	0.6999082417417125 0.9853988310930588 0.5156263565363203	0.115314
H	0.7033825051423479 0.8590582846396508 0.5147978863075415	0.111557
H	0.8539144205060030 0.0784000838780908 0.3431599520774690	0.099577
H	0.8521941627396231 0.2034367910703709 0.3370428970892134	0.101260
H	0.6483580782753769 0.2035714767365971 0.4347977484549743	0.102456
H	0.6496867795100990 0.0787030409346000 0.4397000544269881	0.104147
H	0.3549937788413434 0.3017693099172483 0.2176900247877909	0.111062
H	0.4808940152833084 0.3057900304544555 0.2254242744939790	0.115533
H	0.4862452304464323 0.1996729982405293 0.9847803208667024	0.114936
H	0.3602549018311401 0.2016922327622590 0.9851800534538770	0.105184
H	0.5785364863803907 0.3541483552846847 0.1572413424177858	0.099921
H	0.7036110920865660 0.3523010896079830 0.1629867691597393	0.101522
H	0.7034289104023639 0.1484617397241918 0.0652305951005235	0.102218
H	0.5785721430778492 0.1499264846085339 0.0606960135462842	0.103716
H	0.1450062331586577 0.1982306900827516 0.2176900247877909	0.111062
H	0.0191060147166940 0.1942099455455425 0.2254242744939790	0.115532
H	0.0137547725535645 0.3003270017594709 0.9847803208667024	0.114936
H	0.1397450861688591 0.2983077672377411 0.9851800534538770	0.105185
H	0.9214634656196125 0.1458516567153164 0.1572413424177858	0.099914
H	0.7963889079134340 0.1476988983920159 0.1629867691597393	0.101520
H	0.7965710895976361 0.3515382602758082 0.0652305951005235	0.102217
H	0.9214278569221508 0.3500735153914661 0.0606960135462842	0.103716
H	0.3017693099172483 0.1450062331586577 0.2176900247877909	0.111062
H	0.3057900304544555 0.0191060147166940 0.2254242744939790	0.115532
H	0.1996729982405293 0.0137547725535645 0.9847803208667024	0.114937
H	0.2016922327622590 0.1397450861688591 0.9851800534538770	0.105185
H	0.3541483552846847 0.9214634656196125 0.1572413424177858	0.099916
H	0.3523010896079830 0.7963889079134340 0.1629867691597393	0.101522
H	0.1484617397241918 0.7965710895976361 0.0652305951005235	0.102218
H	0.1499264846085339 0.9214278569221508 0.0606960135462842	0.103716
H	0.1982306900827516 0.3549937788413434 0.2176900247877909	0.111062
H	0.1942099455455425 0.4808940152833084 0.2254242744939790	0.115534
H	0.3003270017594709 0.4862452304464323 0.9847803208667024	0.114935
H	0.2983077672377411 0.3602549018311401 0.9851800534538770	0.105184
H	0.1458516567153164 0.5785364863803907 0.1572413424177858	0.099921
H	0.1476988983920159 0.7036110920865660 0.1629867691597393	0.101521
H	0.3515382602758082 0.7034289104023639 0.0652305951005235	0.102218
H	0.3500735153914661 0.5785721430778492 0.0606960135462842	0.103717
Cu	0.2500000000000000 0.2500000000000000 0.6000536301808956	0.757024
Cu	0.7500000000000000 0.7500000000000000 0.8987318806513337	0.754480
Cu	0.7500000000000000 0.7500000000000000 0.3987318806513337	0.754486
Cu	0.2500000000000000 0.2500000000000000 0.1000536381808962	0.757026
V	0.2500000000000000 0.2500000000000000 0.3594990666308152	2.280795
V	0.7500000000000000 0.7500000000000000 0.1569075789670610	2.279952
V	0.7500000000000000 0.7500000000000000 0.6569075789670612	2.280021
V	0.2500000000000000 0.2500000000000000 0.8594990976308142	2.280798
	  	
