#======================================================================

# CRYSTAL DATA

#----------------------------------------------------------------------

data_VESTA_phase_1


_pd_phase_name                         VOFFIVE_7_Fe
_cell_length_a                         19.41218
_cell_length_b                         19.41218
_cell_length_c                         7.91626
_cell_angle_alpha                      90
_cell_angle_beta                       90
_cell_angle_gamma                      90
_symmetry_space_group_name_H-M         P 1
_symmetry_Int_Tables_number            1

loop_
_symmetry_equiv_pos_as_xyz
   x, y, z

loop_
   _atom_site_label
   _atom_site_fract_x
   _atom_site_fract_y
   _atom_site_fract_z
   _atom_site_charge
C	0.6634527120053837 0.8738347238107027 0.6986608601586811	0.105799
C	0.6130148713349378 0.9245195798948203 0.7032675989263232	-0.182109
C	0.5781878140926019 0.8890572060690157 0.4260448821885503	-0.173730
C	0.6290850223982301 0.8389083695623615 0.4321969227075485	0.099688
C	0.8365472879946163 0.6261652761892973 0.6986608601586811	0.105799
C	0.8869851286650622 0.5754804201051797 0.7032675989263232	-0.182109
C	0.9218121359074011 0.6109428449309849 0.4260448821885503	-0.173730
C	0.8709149276017729 0.6610916304376385 0.4321969227075485	0.099688
C	0.6261652761892973 0.6634527120053837 0.6986608601586811	0.105799
C	0.5754804201051797 0.6130148713349378 0.7032675989263232	-0.182109
C	0.6109428449309849 0.5781878140926019 0.4260448821885503	-0.173730
C	0.6610916304376385 0.6290850223982301 0.4321969227075485	0.099687
C	0.8738347238107027 0.8365472879946163 0.6986608601586811	0.105799
C	0.9245195798948203 0.8869851286650622 0.7032675989263232	-0.182108
C	0.8890572060690157 0.9218121359074011 0.4260448821885503	-0.173730
C	0.8389083695623615 0.8709149276017729 0.4321969227075485	0.099687
C	0.3362592662789143 0.3735217083517072 0.3021961582946657	0.102430
C	0.3866337304686182 0.4243179189785202 0.2970200885656020	-0.177358
C	0.4219108157562432 0.3893219697268194 0.5742667748500850	-0.176007
C	0.3711265563069190 0.3391260540717924 0.5686615970001931	0.101102
C	0.1637407207210881 0.1264782916482929 0.3021961582946657	0.102430
C	0.1133662695313818 0.0756820810214797 0.2970200885656020	-0.177358
C	0.0780891842437566 0.1106780302731807 0.5742667748500850	-0.176007
C	0.1288734306930835 0.1608739459282078 0.5686615970001931	0.101102
C	0.3735217083517072 0.1637407207210881 0.3021961582946657	0.102430
C	0.4243179189785202 0.1133662695313818 0.2970200885656020	-0.177357
C	0.3893219697268194 0.0780891842437566 0.5742667748500850	-0.176006
C	0.3391260540717924 0.1288734306930835 0.5686615970001931	0.101102
C	0.1264782916482929 0.3362592662789143 0.3021961582946657	0.102430
C	0.0756820810214797 0.3866337304686182 0.2970200885656020	-0.177357
C	0.1106780302731807 0.4219108157562432 0.5742667748500850	-0.176006
C	0.1608739459282078 0.3711265563069190 0.5686615970001931	0.101102
C	0.4338566454587139 0.0692718995994995 0.4357762184586615	0.137850
C	0.4873038810285624 0.0166196282092972 0.4311590428826997	-0.124468
C	0.0661433355412810 0.4307280694005014 0.4357762184586615	0.137850
C	0.0126960929714354 0.4833803577907016 0.4311590428826997	-0.124468
C	0.4307280694005014 0.4338566454587139 0.4357762184586615	0.137850
C	0.4833803577907016 0.4873038810285624 0.4311590428826997	-0.124468
C	0.0692718995994995 0.0661433355412810 0.4357762184586615	0.137850
C	0.0166196282092972 0.0126960929714354 0.4311590428826997	-0.124468
C	0.5662360052728078 0.5690788853446649 0.5641112298438690	0.139080
C	0.5127120418943052 0.5164998402548673 0.5682124356603515	-0.124050
C	0.9337640447271963 0.9309211646553393 0.5641112298438690	0.139080
C	0.9872879071056941 0.9835001597451327 0.5682124356603515	-0.124051
C	0.5690788853446649 0.9337640447271963 0.5641112298438690	0.139080
C	0.5164998402548673 0.9872879071056941 0.5682124356603515	-0.124051
C	0.9309211646553393 0.5662360052728078 0.5641112298438690	0.139080
C	0.9835001597451327 0.5127120418943052 0.5682124356603515	-0.124051
H	0.6978423794595841 0.8658293195488105 0.8054395344365287	0.096647
H	0.6082678736095477 0.9572135156236249 0.8145635324792994	0.114571
H	0.5449888408125273 0.8919546926912965 0.3153623275268977	0.114583
H	0.6375144800391738 0.8039354797298486 0.3266797432629494	0.105814
H	0.8021576205404159 0.6341706294511888 0.8054395344365287	0.096647
H	0.8917321263904523 0.5427864343763781 0.8145635324792994	0.114571
H	0.9550111081874720 0.6080452563087029 0.3153623275268977	0.114583
H	0.8624855199608262 0.6960645202701514 0.3266797432629494	0.105814
H	0.6341706294511888 0.6978423794595841 0.8054395344365287	0.096647
H	0.5427864343763781 0.6082678736095477 0.8145635324792994	0.114571
H	0.6080452563087029 0.5449888408125273 0.3153623275268977	0.114583
H	0.6960645202701514 0.6375144800391738 0.3266797432629494	0.105814
H	0.8658293195488105 0.8021576205404159 0.8054395344365287	0.096647
H	0.9572135156236249 0.8917321263904523 0.8145635324792994	0.114571
H	0.8919546926912965 0.9550111081874720 0.3153623275268977	0.114583
H	0.8039354797298486 0.8624855199608262 0.3266797432629494	0.105814
H	0.3019636134416090 0.3646892608012270 0.1954986108008023	0.105810
H	0.3913354225295335 0.4567785483719593 0.1852535116924928	0.114023
H	0.4553329452518156 0.3922639187747989 0.6845314840872915	0.115643
H	0.3635052979634118 0.3040474258041801 0.6742799383373720	0.096634
H	0.1980363995583957 0.1353107521987776 0.1954986108008023	0.105810
H	0.1086645514704643 0.0432214706280387 0.1852535116924928	0.114023
H	0.0446670857481834 0.1077360682251964 0.6845314840872915	0.115643
H	0.1364947020365882 0.1959525611958223 0.6742799383373720	0.096634
H	0.3646892608012270 0.1980363995583957 0.1954986108008023	0.105810
H	0.4567785483719593 0.1086645514704643 0.1852535116924928	0.114024
H	0.3922639187747989 0.0446670857481834 0.6845314840872915	0.115643
H	0.3040474258041801 0.1364947020365882 0.6742799383373720	0.096634
H	0.1353107521987776 0.3019636134416090 0.1954986108008023	0.105810
H	0.0432214706280387 0.3913354225295335 0.1852535116924928	0.114024
H	0.1077360682251964 0.4553329452518156 0.6845314840872915	0.115643
H	0.1959525611958223 0.3635052979634118 0.6742799383373720	0.096634
H	0.5057937001378993 0.0022276476101901 0.3054146205760071	0.101863
H	0.9942062498621037 0.4977723503898098 0.3054146205760071	0.101863
H	0.4977723503898098 0.5057937001378993 0.3054146205760071	0.101863
H	0.0022276476101901 0.9942062498621037 0.3054146205760071	0.101863
H	0.4941423929264784 0.5020936775545534 0.6939293761413869	0.101182
H	0.0058575880735235 0.9979063724454437 0.6939293761413869	0.101182
H	0.5020936775545534 0.0058575880735235 0.6939293761413869	0.101182
H	0.9979063724454437 0.4941423929264784 0.6939293761413869	0.101182
Fe	0.2500000000000000 0.2500000000000000 0.4298440165702421	0.838532
Fe	0.7500000000000000 0.7500000000000000 0.5608405642444844	0.839065
V	0.2500000000000000 0.2500000000000000 0.9090858443588671	2.247083
V	0.7500000000000000 0.7500000000000000 0.0388610143402147	2.247820
F	0.2500000000000000 0.2500000000000000 0.1786419606440509	-0.604659
F	0.7500000000000000 0.7500000000000000 0.3087726590900369	-0.605193
F	0.3182658369583131 0.3145937247127926 0.9390504573933574	-0.570852
F	0.1817341630416869 0.1854062622872099 0.9390504573933574	-0.570852
F	0.1854062622872099 0.3182658369583131 0.9390504573933574	-0.570852
F	0.3145937247127926 0.1817341630416869 0.9390504573933574	-0.570852
F	0.6838379863401088 0.8167565790892332 0.0685499660029475	-0.571026
F	0.8161620136598912 0.6832434209107668 0.0685499660029475	-0.571026
F	0.8167565790892332 0.8161620136598912 0.0685499660029475	-0.571026
F	0.6832434209107668 0.6838379863401088 0.0685499660029475	-0.571026
O	0.2500000000000000 0.2500000000000000 0.6988964011412769	-0.811973
O	0.7500000000000000 0.7500000000000000 0.8288036207914915	-0.811403
N	0.3311832750720368 0.1715012241520069 0.4356002552038901	-0.243932
N	0.1688167249279633 0.3284987758479930 0.4356002552038901	-0.243932
N	0.3284987758479930 0.3311832750720368 0.4356002552038901	-0.243932
N	0.1715012241520069 0.1688167249279633 0.4356002552038901	-0.243932
N	0.6687141226745086 0.6714731100412812 0.5658362389763992	-0.244004
N	0.8312858773254914 0.8285268899587188 0.5658362389763992	-0.244004
N	0.6714731100412812 0.8312858773254914 0.5658362389763992	-0.244004
N	0.8285268899587188 0.6687141226745086 0.5658362389763992	-0.244004
	  	
