#======================================================================

# CRYSTAL DATA

#----------------------------------------------------------------------

data_VESTA_phase_1


_pd_phase_name                         VOFFIVE_3_Co
_cell_length_a                         14.26929
_cell_length_b                         14.26929
_cell_length_c                         7.68275
_cell_angle_alpha                      90
_cell_angle_beta                       90
_cell_angle_gamma                      90
_symmetry_space_group_name_H-M         P 1
_symmetry_Int_Tables_number            1

loop_
_symmetry_equiv_pos_as_xyz
   x, y, z

loop_
   _atom_site_label
   _atom_site_fract_x
   _atom_site_fract_y
   _atom_site_fract_z
   _atom_site_charge
C	0.2721030546163310 0.4512506883221998 0.6438828926743823	0.065776
C	0.2278969283836711 0.0487493166778040 0.6438828926743823	0.065776
C	0.2293298440025756 0.4511199413394310 0.3558191436615679	0.065094
C	0.2706701389974265 0.0488800636605730 0.3558191436615679	0.065094
C	0.0488800636605730 0.2706701389974265 0.3558191436615679	0.065091
C	0.4511199413394310 0.2293298440025756 0.3558191436615679	0.065091
C	0.4512506883221998 0.2721030546163310 0.6438828926743823	0.065765
C	0.0487493166778040 0.2278969283836711 0.6438828926743823	0.065765
C	0.9512507223221957 0.2278969283836711 0.6438828926743823	0.065764
C	0.5487492776778043 0.2721030546163310 0.6438828926743823	0.065764
C	0.5488800246605732 0.2293298440025756 0.3558191436615679	0.065082
C	0.9511199753394268 0.2706701389974265 0.3558191436615679	0.065082
C	0.7293298270025708 0.0488800636605730 0.3558191436615679	0.065091
C	0.7706701729974292 0.4511199413394310 0.3558191436615679	0.065091
C	0.7721030886163339 0.0487493166778040 0.6438828926743823	0.065765
C	0.7278969113836661 0.4512506883221998 0.6438828926743823	0.065765
C	0.4512506883221998 0.7278969113836661 0.6438828926743823	0.065775
C	0.0487493166778040 0.7721030886163339 0.6438828926743823	0.065775
C	0.0488800636605730 0.7293298270025708 0.3558191436615679	0.065093
C	0.4511199413394310 0.7706701729974292 0.3558191436615679	0.065093
C	0.2293298440025756 0.5488800246605732 0.3558191436615679	0.065079
C	0.2706701389974265 0.9511199753394268 0.3558191436615679	0.065079
C	0.2721030546163310 0.5487492776778043 0.6438828926743823	0.065754
C	0.2278969283836711 0.9512507223221957 0.6438828926743823	0.065754
C	0.7721030886163339 0.9512507223221957 0.6438828926743823	0.065764
C	0.7278969113836661 0.5487492776778043 0.6438828926743823	0.065764
C	0.7293298270025708 0.9511199753394268 0.3558191436615679	0.065082
C	0.7706701729974292 0.5488800246605732 0.3558191436615679	0.065082
C	0.5488800246605732 0.7706701729974292 0.3558191436615679	0.065079
C	0.9511199753394268 0.7293298270025708 0.3558191436615679	0.065079
C	0.9512507223221957 0.7721030886163339 0.6438828926743823	0.065754
C	0.5487492776778043 0.7278969113836661 0.6438828926743823	0.065754
H	0.2890198682116930 0.4130322065289916 0.7624586336401777	0.104427
H	0.2109801487883121 0.0869678024710055 0.7624586336401777	0.104427
H	0.2123717426727043 0.4121680098505017 0.2379298924198667	0.113610
H	0.2876282743273007 0.0878319991494955 0.2379298924198667	0.113610
H	0.0878319991494955 0.2876282743273007 0.2379298924198667	0.113610
H	0.4121680098505017 0.2123717426727043 0.2379298924198667	0.113610
H	0.4130322065289916 0.2890198682116930 0.7624586336401777	0.104427
H	0.0869678024710055 0.2109801487883121 0.7624586336401777	0.104427
H	0.9130321725289962 0.2109801487883121 0.7624586336401777	0.104428
H	0.5869678274710038 0.2890198682116930 0.7624586336401777	0.104428
H	0.5878320241494940 0.2123717426727043 0.2379298924198667	0.113612
H	0.9121679758505060 0.2876282743273007 0.2379298924198667	0.113612
H	0.7123716916727038 0.0878319991494955 0.2379298924198667	0.113610
H	0.7876283083272962 0.4121680098505017 0.2379298924198667	0.113610
H	0.7890199022116885 0.0869678024710055 0.7624586336401777	0.104427
H	0.7109800977883115 0.4130322065289916 0.7624586336401777	0.104427
H	0.4130322065289916 0.7109800977883115 0.7624586336401777	0.104427
H	0.0869678024710055 0.7890199022116885 0.7624586336401777	0.104427
H	0.0878319991494955 0.7123716916727038 0.2379298924198667	0.113610
H	0.4121680098505017 0.7876283083272962 0.2379298924198667	0.113610
H	0.2123717426727043 0.5878320241494940 0.2379298924198667	0.113612
H	0.2876282743273007 0.9121679758505060 0.2379298924198667	0.113613
H	0.2890198682116930 0.5869678274710038 0.7624586336401777	0.104429
H	0.2109801487883121 0.9130321725289962 0.7624586336401777	0.104429
H	0.7890199022116885 0.9130321725289962 0.7624586336401777	0.104428
H	0.7109800977883115 0.5869678274710038 0.7624586336401777	0.104428
H	0.7123716916727038 0.9121679758505060 0.2379298924198667	0.113612
H	0.7876283083272962 0.5878320241494940 0.2379298924198667	0.113612
H	0.5878320241494940 0.7876283083272962 0.2379298924198667	0.113612
H	0.9121679758505060 0.7123716916727038 0.2379298924198667	0.113612
H	0.9130321725289962 0.7890199022116885 0.7624586336401777	0.104429
H	0.5869678274710038 0.7109800977883115 0.7624586336401777	0.104429
Co	0.2500000000000000 0.2500000000000000 0.5006720438079131	0.888543
Co	0.7500000340000028 0.2500000000000000 0.5006720438079131	0.888542
Co	0.2500000000000000 0.7500000340000028 0.5006720438079131	0.888542
Co	0.7500000340000028 0.7500000340000028 0.5006720438079131	0.888542
V	0.2500000000000000 0.2500000000000000 -0.0231252390753031	2.242477
V	0.7500000340000028 0.2500000000000000 -0.0231252390753031	2.242479
V	0.2500000000000000 0.7500000340000028 -0.0231252390753031	2.242479
V	0.7500000340000028 0.7500000340000028 -0.0231252390753031	2.242480
O	0.2500000000000000 0.2500000000000000 0.7598674443518887	-0.862030
O	0.7500000340000028 0.2500000000000000 0.7598674443518887	-0.862030
O	0.2500000000000000 0.7500000340000028 0.7598674443518887	-0.862030
O	0.7500000340000028 0.7500000340000028 0.7598674443518887	-0.862030
F	0.2500000000000000 0.2500000000000000 0.2449118979814370	-0.630710
F	0.3409347602995571 0.3409347602995571 0.0029517108997801	-0.554177
F	0.1590652397004430 0.1590652397004430 0.0029517108997801	-0.554177
F	0.1593718332123444 0.3406281667876555 0.0059465849313408	-0.547829
F	0.3406281667876555 0.1593718332123444 0.0059465849313408	-0.547829
F	0.7500000340000028 0.2500000000000000 0.2449118979814370	-0.630710
F	0.8406281327876601 0.3406281667876555 0.0059465849313408	-0.547827
F	0.6593718672123399 0.1593718332123444 0.0059465849313408	-0.547827
F	0.6590652737004387 0.3409347602995571 0.0029517108997801	-0.554176
F	0.8409347262995613 0.1590652397004430 0.0029517108997801	-0.554176
F	0.2500000000000000 0.7500000340000028 0.2449118979814370	-0.630710
F	0.3406281667876555 0.8406281327876601 0.0059465849313408	-0.547828
F	0.1593718332123444 0.6593718672123399 0.0059465849313408	-0.547827
F	0.1590652397004430 0.8409347262995613 0.0029517108997801	-0.554176
F	0.3409347602995571 0.6590652737004387 0.0029517108997801	-0.554176
F	0.7500000340000028 0.7500000340000028 0.2449118979814370	-0.630711
F	0.8409347262995613 0.8409347262995613 0.0029517108997801	-0.554176
F	0.6590652737004387 0.6590652737004387 0.0029517108997801	-0.554175
F	0.6593718672123399 0.8406281327876601 0.0059465849313408	-0.547826
F	0.8406281327876601 0.6593718672123399 0.0059465849313408	-0.547826
N	0.4020490256026173 0.2509213368650094 0.4998787569219663	-0.207458
N	0.0979509663973819 0.2490786631349906 0.4998787569219663	-0.207458
N	0.2509213368650094 0.4020490256026173 0.4998787569219663	-0.207461
N	0.2490786631349906 0.0979509663973819 0.4998787569219663	-0.207461
N	0.9020490596026205 0.2490786631349906 0.4998787569219663	-0.207457
N	0.5979509403973795 0.2509213368650094 0.4998787569219663	-0.207457
N	0.7490786971349935 0.4020490256026173 0.4998787569219663	-0.207459
N	0.7509213708650121 0.0979509663973819 0.4998787569219663	-0.207459
N	0.4020490256026173 0.7490786971349935 0.4998787569219663	-0.207460
N	0.0979509663973819 0.7509213708650121 0.4998787569219663	-0.207460
N	0.2490786631349906 0.9020490596026205 0.4998787569219663	-0.207457
N	0.2509213368650094 0.5979509403973795 0.4998787569219663	-0.207456
N	0.9020490596026205 0.7509213708650121 0.4998787569219663	-0.207456
N	0.5979509403973795 0.7490786971349935 0.4998787569219663	-0.207455
N	0.7509213708650121 0.9020490596026205 0.4998787569219663	-0.207458
N	0.7490786971349935 0.5979509403973795 0.4998787569219663	-0.207458
	  	
