#======================================================================

# CRYSTAL DATA

#----------------------------------------------------------------------

data_VESTA_phase_1


_pd_phase_name                         VOFFIVE_2_Co_i
_cell_length_a                         13.60651
_cell_length_b                         13.60651
_cell_length_c                         8.05858
_cell_angle_alpha                      90
_cell_angle_beta                       90
_cell_angle_gamma                      90
_symmetry_space_group_name_H-M         P 1
_symmetry_Int_Tables_number            1

loop_
_symmetry_equiv_pos_as_xyz
   x, y, z

loop_
   _atom_site_label
   _atom_site_fract_x
   _atom_site_fract_y
   _atom_site_fract_z
   _atom_site_charge
C	0.0000000000000000 0.2978384026266132 0.3503344362784026	-0.154979
C	0.0000000000000000 0.1960068068193188 0.3554468898845310	0.096344
C	0.5000000000000000 0.7978384026266130 0.8503344062784071	-0.154978
C	0.5000000000000000 0.6960068068193188 0.8554468308845298	0.096344
C	0.0000000000000000 0.7021615973733870 0.3503344362784026	-0.154980
C	0.0000000000000000 0.8039931931806812 0.3554468898845310	0.096346
C	0.5000000000000000 0.2021615973733870 0.8503344062784071	-0.154980
C	0.5000000000000000 0.3039931931806811 0.8554468308845298	0.096345
C	0.7021615973733870 -0.0000000000000000 0.3503344362784026	-0.154977
C	0.8039931931806812 -0.0000000000000000 0.3554468898845310	0.096348
C	0.2021615973733870 0.5000000000000000 0.8503344062784071	-0.154977
C	0.3039931931806811 0.5000000000000000 0.8554468308845298	0.096347
C	0.2978384026266132 -0.0000000000000000 0.3503344362784026	-0.154979
C	0.1960068068193188 -0.0000000000000000 0.3554468898845310	0.096350
C	0.7978384026266130 0.5000000000000000 0.8503344062784071	-0.154979
C	0.6960068068193188 0.5000000000000000 0.8554468308845298	0.096349
C	0.0000000000000000 0.2984508289688990 0.6490476278212840	-0.157684
C	0.0000000000000000 0.1968005046006918 0.6439570474882368	0.099104
C	0.5000000000000000 0.7984508289688986 0.1490475978212888	-0.157689
C	0.5000000000000000 0.6968005046006919 0.1439570034882402	0.099104
C	0.0000000000000000 0.7015491710311014 0.6490476278212840	-0.157691
C	0.0000000000000000 0.8031994953993081 0.6439570474882368	0.099106
C	0.5000000000000000 0.2015491710311011 0.1490475978212888	-0.157686
C	0.5000000000000000 0.3031994953993082 0.1439570034882402	0.099106
C	0.2984508289688990 -0.0000000000000000 0.6490476278212840	-0.157685
C	0.1968005046006918 -0.0000000000000000 0.6439570474882368	0.099111
C	0.7984508289688986 0.5000000000000000 0.1490475978212888	-0.157690
C	0.6968005046006919 0.5000000000000000 0.1439570034882402	0.099112
C	0.7015491710311014 -0.0000000000000000 0.6490476278212840	-0.157688
C	0.8031994953993081 -0.0000000000000000 0.6439570474882368	0.099110
C	0.2015491710311011 0.5000000000000000 0.1490475978212888	-0.157683
C	0.3031994953993082 0.5000000000000000 0.1439570034882402	0.099109
C	0.0000000000000000 0.4551676433348725 0.4992600613237645	-0.094285
C	0.0000000000000000 0.3516380542950203 0.4994019655274805	0.156864
C	0.5000000000000000 0.9551676083348734 -0.0007399386762355	-0.094285
C	0.5000000000000000 0.8516380192950210 -0.0005980344725198	0.156865
C	0.0000000000000000 0.5448323566651273 0.4992600613237645	-0.094076
C	0.0000000000000000 0.6483619807049790 0.4994019655274805	0.156840
C	0.5000000000000000 0.0448323696651321 -0.0007399386762355	-0.094077
C	0.5000000000000000 0.1483619637049813 -0.0005980344725198	0.156838
C	0.5448323566651273 -0.0000000000000000 0.4992600613237645	-0.094287
C	0.6483619807049790 -0.0000000000000000 0.4994019655274805	0.156866
C	0.0448323696651321 0.5000000000000000 -0.0007399386762355	-0.094287
C	0.1483619637049813 0.5000000000000000 -0.0005980344725198	0.156864
C	0.4551676433348725 -0.0000000000000000 0.4992600613237645	-0.094079
C	0.3516380542950203 -0.0000000000000000 0.4994019655274805	0.156839
C	0.9551676083348732 0.5000000000000000 -0.0007399386762355	-0.094078
C	0.8516380192950210 0.5000000000000000 -0.0005980344725198	0.156840
H	0.0000000000000000 0.3357816134736941 0.2314172058306885	0.121006
H	0.0000000000000000 0.1524743038503694 0.2423145031218191	0.109142
H	0.5000000000000000 0.8357816474736968 0.7314172208306863	0.121006
H	0.5000000000000000 0.6524743388503689 0.7423144881218213	0.109142
H	0.0000000000000000 0.6642183525263032 0.2314172058306885	0.121004
H	0.0000000000000000 0.8475256611496311 0.2423145031218191	0.109142
H	0.5000000000000000 0.1642183695263080 0.7314172208306863	0.121005
H	0.5000000000000000 0.3475256961496306 0.7423144881218213	0.109142
H	0.6642183525263032 -0.0000000000000000 0.2314172058306885	0.121005
H	0.8475256611496311 -0.0000000000000000 0.2423145031218191	0.109142
H	0.1642183695263080 0.5000000000000000 0.7314172208306863	0.121005
H	0.3475256961496306 0.5000000000000000 0.7423144881218213	0.109142
H	0.3357816134736941 -0.0000000000000000 0.2314172058306885	0.121004
H	0.1524743038503694 -0.0000000000000000 0.2423145031218191	0.109142
H	0.8357816474736968 0.5000000000000000 0.7314172208306863	0.121004
H	0.6524743388503689 0.5000000000000000 0.7423144881218213	0.109142
H	0.0000000000000000 0.3361934789942213 0.7680937086616414	0.122142
H	0.0000000000000000 0.1543157224176909 0.7579039051007315	0.099169
H	0.5000000000000000 0.8361935129942245 0.2680937376616400	0.122142
H	0.5000000000000000 0.6543157574176902 0.2579038761007327	0.099169
H	0.0000000000000000 0.6638064870057755 0.7680937086616414	0.122141
H	0.0000000000000000 0.8456842425823098 0.7579039051007315	0.099169
H	0.5000000000000000 0.1638065040057808 0.2680937376616400	0.122141
H	0.5000000000000000 0.3456842775823090 0.2579038761007327	0.099169
H	0.3361934789942213 -0.0000000000000000 0.7680937086616414	0.122140
H	0.1543157224176909 -0.0000000000000000 0.7579039051007315	0.099170
H	0.8361935129942245 0.5000000000000000 0.2680937376616400	0.122141
H	0.6543157574176902 0.5000000000000000 0.2579038761007327	0.099170
H	0.6638064870057755 -0.0000000000000000 0.7680937086616414	0.122142
H	0.8456842425823098 -0.0000000000000000 0.7579039051007315	0.099170
H	0.1638065040057808 0.5000000000000000 0.2680937376616400	0.122141
H	0.3456842775823090 0.5000000000000000 0.2579038761007327	0.099170
Co	0.0000000000000000 -0.0000000000000000 0.5017168071623264	0.616809
Co	0.5000000000000000 0.5000000000000000 0.0017168071623263	0.616810
V	0.0000000000000000 -0.0000000000000000 -0.0191748479433554	2.220355
V	0.5000000000000000 0.5000000000000000 0.4808251520566448	2.220354
N	0.0000000000000000 0.1454786976123275 0.5001917650490550	-0.174152
N	0.5000000000000000 0.6454786976123275 0.0001917650490553	-0.174152
N	0.0000000000000000 0.8545213023876725 0.5001917650490550	-0.174151
N	0.5000000000000000 0.3545213023876727 0.0001917650490553	-0.174152
N	0.8545213023876725 -0.0000000000000000 0.5001917650490550	-0.174159
N	0.3545213023876727 0.5000000000000000 0.0001917650490553	-0.174160
N	0.1454786976123275 -0.0000000000000000 0.5001917650490550	-0.174159
N	0.6454786976123275 0.5000000000000000 0.0001917650490553	-0.174159
O	0.0000000000000000 -0.0000000000000000 0.7744474886016354	-0.813368
O	0.5000000000000000 0.5000000000000000 0.2744474596016367	-0.813368
F	0.0000000000000000 -0.0000000000000000 0.2336697197031954	-0.614430
F	0.5000000000000000 0.5000000000000000 0.7336696757031986	-0.614430
F	0.5958948643918812 0.5958948643918812 0.5049661920314107	-0.575103
F	0.5958948643918812 0.4041051006081194 0.5049661920314107	-0.575103
F	0.4041051006081194 0.5958948643918812 0.5049661920314107	-0.575103
F	0.4041051006081194 0.4041051006081194 0.5049661920314107	-0.575103
F	0.0958948723918819 0.0958948723918819 0.0049661920314106	-0.575103
F	0.9041051356081188 0.9041051356081188 0.0049661920314106	-0.575103
F	0.9041051356081188 0.0958948723918819 0.0049661920314106	-0.575103
F	0.0958948723918819 0.9041051356081188 0.0049661920314106	-0.575103
	  	
