#======================================================================

# CRYSTAL DATA

#----------------------------------------------------------------------

data_VESTA_phase_1


_pd_phase_name                         VOFFIVE_2_Cu_i
_cell_length_a                         13.72945
_cell_length_b                         13.72945
_cell_length_c                         8.10718
_cell_angle_alpha                      90
_cell_angle_beta                       90
_cell_angle_gamma                      90
_symmetry_space_group_name_H-M         P 1
_symmetry_Int_Tables_number            1

loop_
_symmetry_equiv_pos_as_xyz
   x, y, z

loop_
   _atom_site_label
   _atom_site_fract_x
   _atom_site_fract_y
   _atom_site_fract_z
   _atom_site_charge
C	0.0000000000000000 0.2998536778940276 0.3508561995883089	-0.154577
C	0.0000000000000000 0.1988201714652410 0.3560763115766712	0.103118
C	0.5000000000000000 0.7998536778940274 0.8508561695883136	-0.154577
C	0.5000000000000000 0.6988201714652410 0.8560762525766701	0.103118
C	0.0000000000000000 0.7001463221059726 0.3508561995883089	-0.154579
C	0.0000000000000000 0.8011798285347590 0.3560763115766712	0.103120
C	0.5000000000000000 0.2001463221059725 0.8508561695883136	-0.154579
C	0.5000000000000000 0.3011798285347590 0.8560762525766701	0.103120
C	0.7001463221059726 -0.0000000000000000 0.3508561995883089	-0.154576
C	0.8011798285347590 -0.0000000000000000 0.3560763115766712	0.103120
C	0.2001463221059725 0.5000000000000000 0.8508561695883136	-0.154576
C	0.3011798285347590 0.5000000000000000 0.8560762525766701	0.103120
C	0.2998536778940276 -0.0000000000000000 0.3508561995883089	-0.154579
C	0.1988201714652410 -0.0000000000000000 0.3560763115766712	0.103123
C	0.7998536778940274 0.5000000000000000 0.8508561695883136	-0.154579
C	0.6988201714652410 0.5000000000000000 0.8560762525766701	0.103123
C	0.0000000000000000 0.3001515119932814 0.6489305586356932	-0.155428
C	0.0000000000000000 0.1992422247048095 0.6432069192034117	0.107601
C	0.5000000000000000 0.8001515119932814 0.1489305286356979	-0.155428
C	0.5000000000000000 0.6992422247048095 0.1432068752034151	0.107601
C	0.0000000000000000 0.6998484880067186 0.6489305586356932	-0.155430
C	0.0000000000000000 0.8007577752951905 0.6432069192034117	0.107604
C	0.5000000000000000 0.1998484880067186 0.1489305286356979	-0.155430
C	0.5000000000000000 0.3007577752951906 0.1432068752034151	0.107604
C	0.3001515119932814 -0.0000000000000000 0.6489305586356932	-0.155430
C	0.1992422247048095 -0.0000000000000000 0.6432069192034117	0.107606
C	0.8001515119932814 0.5000000000000000 0.1489305286356979	-0.155430
C	0.6992422247048095 0.5000000000000000 0.1432068752034151	0.107606
C	0.6998484880067186 -0.0000000000000000 0.6489305586356932	-0.155427
C	0.8007577752951905 -0.0000000000000000 0.6432069192034117	0.107603
C	0.1998484880067186 0.5000000000000000 0.1489305286356979	-0.155427
C	0.3007577752951906 0.5000000000000000 0.1432068752034151	0.107603
C	0.0000000000000000 0.4555940042231788 0.4997849089256304	-0.094333
C	0.0000000000000000 0.3526211681599756 0.4998042285102523	0.159235
C	0.5000000000000000 0.9555939692231796 -0.0002150910743695	-0.094332
C	0.5000000000000000 0.8526211331599761 -0.0001957714897477	0.159235
C	0.0000000000000000 0.5444059957768210 0.4997849089256304	-0.094084
C	0.0000000000000000 0.6473788668400239 0.4998042285102523	0.159205
C	0.5000000000000000 0.0444060087768258 -0.0002150910743695	-0.094084
C	0.5000000000000000 0.1473788498400258 -0.0001957714897477	0.159205
C	0.5444059957768210 -0.0000000000000000 0.4997849089256304	-0.094333
C	0.6473788668400239 -0.0000000000000000 0.4998042285102523	0.159235
C	0.0444060087768258 0.5000000000000000 -0.0002150910743695	-0.094333
C	0.1473788498400258 0.5000000000000000 -0.0001957714897477	0.159235
C	0.4555940042231788 -0.0000000000000000 0.4997849089256304	-0.094084
C	0.3526211681599756 -0.0000000000000000 0.4998042285102523	0.159205
C	0.9555939692231796 0.5000000000000000 -0.0002150910743695	-0.094084
C	0.8526211331599761 0.5000000000000000 -0.0001957714897477	0.159205
H	0.0000000000000000 0.3372209247492129 0.2324161846440424	0.121135
H	0.0000000000000000 0.1551781406777443 0.2439567865888233	0.110633
H	0.5000000000000000 0.8372209587492159 0.7324161996440401	0.121135
H	0.5000000000000000 0.6551781756777437 0.7439567715888253	0.110632
H	0.0000000000000000 0.6627790412507841 0.2324161846440424	0.121134
H	0.0000000000000000 0.8448218243222563 0.2439567865888233	0.110633
H	0.5000000000000000 0.1627790582507893 0.7324161996440401	0.121134
H	0.5000000000000000 0.3448218593222557 0.7439567715888253	0.110633
H	0.6627790412507841 -0.0000000000000000 0.2324161846440424	0.121135
H	0.8448218243222563 -0.0000000000000000 0.2439567865888233	0.110632
H	0.1627790582507893 0.5000000000000000 0.7324161996440401	0.121135
H	0.3448218593222557 0.5000000000000000 0.7439567715888253	0.110632
H	0.3372209247492129 -0.0000000000000000 0.2324161846440424	0.121134
H	0.1551781406777443 -0.0000000000000000 0.2439567865888233	0.110632
H	0.8372209587492159 0.5000000000000000 0.7324161996440401	0.121134
H	0.6551781756777437 0.5000000000000000 0.7439567715888253	0.110632
H	0.0000000000000000 0.3373350109728346 0.7675850716445413	0.121907
H	0.0000000000000000 0.1563227639180413 0.7558163980758865	0.099137
H	0.5000000000000000 0.8373350449728373 0.2675851006445398	0.121907
H	0.5000000000000000 0.6563227989180405 0.2558163690758877	0.099137
H	0.0000000000000000 0.6626649550271627 0.7675850716445413	0.121906
H	0.0000000000000000 0.8436772010819595 0.7558163980758865	0.099137
H	0.5000000000000000 0.1626649720271676 0.2675851006445398	0.121906
H	0.5000000000000000 0.3436772360819587 0.2558163690758877	0.099137
H	0.3373350109728346 -0.0000000000000000 0.7675850716445413	0.121906
H	0.1563227639180413 -0.0000000000000000 0.7558163980758865	0.099136
H	0.8373350449728373 0.5000000000000000 0.2675851006445398	0.121906
H	0.6563227989180405 0.5000000000000000 0.2558163690758877	0.099136
H	0.6626649550271627 -0.0000000000000000 0.7675850716445413	0.121907
H	0.8436772010819595 -0.0000000000000000 0.7558163980758865	0.099136
H	0.1626649720271676 0.5000000000000000 0.2675851006445398	0.121907
H	0.3436772360819587 0.5000000000000000 0.2558163690758877	0.099136
Cu	0.0000000000000000 -0.0000000000000000 0.4988841171605858	0.728646
Cu	0.5000000000000000 0.5000000000000000 -0.0011158828394140	0.728646
V	0.0000000000000000 -0.0000000000000000 -0.0186370796661393	2.246145
V	0.5000000000000000 0.5000000000000000 0.4813629203338608	2.246145
N	0.0000000000000000 0.1494200142746781 0.4998880327790801	-0.213202
N	0.5000000000000000 0.6494200142746780 -0.0001119672209200	-0.213202
N	0.0000000000000000 0.8505799857253220 0.4998880327790801	-0.213202
N	0.5000000000000000 0.3505799857253218 -0.0001119672209200	-0.213202
N	0.8505799857253220 -0.0000000000000000 0.4998880327790801	-0.213204
N	0.3505799857253218 0.5000000000000000 -0.0001119672209200	-0.213204
N	0.1494200142746781 -0.0000000000000000 0.4998880327790801	-0.213204
N	0.6494200142746780 0.5000000000000000 -0.0001119672209200	-0.213204
O	0.0000000000000000 -0.0000000000000000 0.7771386624979676	-0.830947
O	0.5000000000000000 0.5000000000000000 0.2771386334979689	-0.830947
F	0.0000000000000000 -0.0000000000000000 0.2298339689875223	-0.642867
F	0.5000000000000000 0.5000000000000000 0.7298339249875256	-0.642867
F	0.5951025337941085 0.5951025337941085 0.5048735825826705	-0.580580
F	0.5951025337941085 0.4048974312058923 0.5048735825826705	-0.580580
F	0.4048974312058923 0.5951025337941085 0.5048735825826705	-0.580581
F	0.4048974312058923 0.4048974312058923 0.5048735825826705	-0.580580
F	0.0951025417941090 0.0951025417941090 0.0048735825826703	-0.580580
F	0.9048974662058915 0.9048974662058915 0.0048735825826703	-0.580580
F	0.9048974662058915 0.0951025417941090 0.0048735825826703	-0.580581
F	0.0951025417941090 0.9048974662058915 0.0048735825826703	-0.580580
	  	
