#======================================================================

# CRYSTAL DATA

#----------------------------------------------------------------------

data_VESTA_phase_1


_pd_phase_name                         VOFFIVE_6_Zn_i
_cell_length_a                         17.83388
_cell_length_b                         17.83388
_cell_length_c                         15.27040
_cell_angle_alpha                      90
_cell_angle_beta                       90
_cell_angle_gamma                      90
_symmetry_space_group_name_H-M         P 1
_symmetry_Int_Tables_number            1

loop_
_symmetry_equiv_pos_as_xyz
   x, y, z

loop_
   _atom_site_label
   _atom_site_fract_x
   _atom_site_fract_y
   _atom_site_fract_z
   _atom_site_charge
N	0.2436539126609797 0.1289423346049479 0.1280232897558522	-0.228528
N	0.2563460873390202 0.3710576783950567 0.1280232897558522	-0.228528
N	0.3710576783950567 0.2436539126609797 0.1280232897558522	-0.228528
N	0.1289423346049479 0.2563460873390202 0.1280232897558522	-0.228528
N	0.7558720130987150 0.6288908977189775 0.3717141740327635	-0.227684
N	0.7441279869012850 0.8711091022810225 0.3717141740327635	-0.227685
N	0.6288908977189775 0.7441279869012850 0.3717141740327635	-0.227684
N	0.8711091022810225 0.7558720130987150 0.3717141740327635	-0.227684
N	0.7558720130987150 0.8711091022810225 0.8717141740327631	-0.227685
N	0.7441279869012850 0.6288908977189775 0.8717141740327631	-0.227685
N	0.6288908977189775 0.7558720130987150 0.8717141740327631	-0.227685
N	0.8711091022810225 0.7441279869012850 0.8717141740327631	-0.227685
N	0.2436539126609797 0.3710576783950567 0.6280232897558519	-0.228529
N	0.2563460873390202 0.1289423346049479 0.6280232897558519	-0.228528
N	0.3710576783950567 0.2563460873390202 0.6280232897558519	-0.228528
N	0.1289423346049479 0.2436539126609797 0.6280232897558519	-0.228529
C	0.2002216760247725 0.0929167019637422 0.1863859007968482	0.103421
C	0.1919794225444344 0.0154749827216789 0.1857899124570198	-0.183300
C	0.2325448227447915 0.9726711020132521 0.1250386186375923	0.109934
C	0.2789477480640418 0.0109609384915000 0.0658854363840298	-0.181071
C	0.2817538881389078 0.0888578895000212 0.0681696567287576	0.106224
C	0.2266508363542267 0.8903150940219003 0.1237666039008275	0.059688
C	0.2907358140356476 0.8465097860940187 0.1209769840330352	-0.172519
C	0.2862419006202703 0.7674428738024324 0.1220800425356705	0.083808
C	0.1487161165470889 0.7783990556803958 0.1246594051757729	-0.121791
C	0.1550257463721572 0.8552383448538559 0.1266830980395674	-0.135626
C	0.2997783369752320 0.4070832780362560 0.1863859007968482	0.103422
C	0.3080205904555703 0.4845250272783150 0.1857899124570198	-0.183300
C	0.2674551772552085 0.5273288979867479 0.1250386186375923	0.109934
C	0.2210522519359583 0.4890390765084975 0.0658854363840298	-0.181070
C	0.2182461118610921 0.4111421034999746 0.0681696567287576	0.106225
C	0.2733491636457732 0.6096849059780997 0.1237666039008275	0.059688
C	0.2092641729643549 0.6534902139059813 0.1209769840330352	-0.172519
C	0.2137580993797298 0.7325571261975676 0.1220800425356705	0.083806
C	0.3512838834529111 0.7216009443196042 0.1246594051757729	-0.121792
C	0.3449742536278426 0.6447616551461441 0.1266830980395674	-0.135626
C	0.4070832780362560 0.2002216760247725 0.1863859007968482	0.103422
C	0.4845250272783150 0.1919794225444344 0.1857899124570198	-0.183299
C	0.5273288979867479 0.2325448227447915 0.1250386186375923	0.109934
C	0.4890390765084975 0.2789477480640418 0.0658854363840298	-0.181070
C	0.4111421034999746 0.2817538881389078 0.0681696567287576	0.106225
C	0.6096849059780997 0.2266508363542267 0.1237666039008275	0.059688
C	0.6534902139059813 0.2907358140356476 0.1209769840330352	-0.172520
C	0.7325571261975676 0.2862419006202703 0.1220800425356705	0.083808
C	0.7216009443196042 0.1487161165470889 0.1246594051757729	-0.121791
C	0.6447616551461441 0.1550257463721572 0.1266830980395674	-0.135627
C	0.0929167019637422 0.2997783369752320 0.1863859007968482	0.103422
C	0.0154749827216789 0.3080205904555703 0.1857899124570198	-0.183300
C	0.9726711020132521 0.2674551772552085 0.1250386186375923	0.109934
C	0.0109609384915000 0.2210522519359583 0.0658854363840298	-0.181069
C	0.0888578895000212 0.2182461118610921 0.0681696567287576	0.106224
C	0.8903150940219003 0.2733491636457732 0.1237666039008275	0.059688
C	0.8465097860940187 0.2092641729643549 0.1209769840330352	-0.172519
C	0.7674428738024324 0.2137580993797298 0.1220800425356705	0.083806
C	0.7783990556803958 0.3512838834529111 0.1246594051757729	-0.121792
C	0.8552383448538559 0.3449742536278426 0.1266830980395674	-0.135627
C	0.7994188991940836 0.5931088204888747 0.3132156371851749	0.105008
C	0.8080407215376499 0.5156280317400344 0.3140332820515651	-0.182312
C	0.7676776676410473 0.4726674265109934 0.3748266511303996	0.109553
C	0.7210773406946526 0.5107689014297973 0.4339160588487634	-0.182538
C	0.7178648850039410 0.5885705986021259 0.4313929328269027	0.104629
C	0.7734512942200937 0.3903060452373353 0.3761347971293897	0.060137
C	0.7093303918213130 0.3465439941794299 0.3790124642369089	-0.172086
C	0.7137582838393687 0.2674622374581740 0.3779990053989636	0.083693
C	0.8513032262553554 0.2783530218371157 0.3754295318113307	-0.121631
C	0.8450447664901066 0.3551837642998622 0.3732990800205159	-0.136448
C	0.7005811008059164 0.9068911795111253 0.3132156371851749	0.105010
C	0.6919592784623501 0.9843719682599656 0.3140332820515651	-0.182312
C	0.7323223323589527 0.0273325954890085 0.3748266511303996	0.109552
C	0.7789226593053474 0.9892311515702036 0.4339160588487634	-0.182539
C	0.7821351149960590 0.9114294013978741 0.4313929328269027	0.104630
C	0.7265487057799063 0.1096939547626647 0.3761347971293897	0.060137
C	0.7906696081786870 0.1534559928205724 0.3790124642369089	-0.172086
C	0.7862417161606313 0.2325377625418259 0.3779990053989636	0.083691
C	0.6486967737446446 0.2216469781628841 0.3754295318113307	-0.121632
C	0.6549552335098934 0.1448162097001357 0.3732990800205159	-0.136449
C	0.5931088204888747 0.7005811008059164 0.3132156371851749	0.105009
C	0.5156280317400344 0.6919592784623501 0.3140332820515651	-0.182311
C	0.4726674265109934 0.7323223323589527 0.3748266511303996	0.109552
C	0.5107689014297973 0.7789226593053474 0.4339160588487634	-0.182538
C	0.5885705986021259 0.7821351149960590 0.4313929328269027	0.104630
C	0.3903060452373353 0.7265487057799063 0.3761347971293897	0.060138
C	0.3465439941794299 0.7906696081786870 0.3790124642369089	-0.172086
C	0.2674622374581740 0.7862417161606313 0.3779990053989636	0.083694
C	0.2783530218371157 0.6486967737446446 0.3754295318113307	-0.121631
C	0.3551837642998622 0.6549552335098934 0.3732990800205159	-0.136448
C	0.9068911795111253 0.7994188991940836 0.3132156371851749	0.105010
C	0.9843719682599656 0.8080407215376499 0.3140332820515651	-0.182312
C	0.0273325954890085 0.7676776676410473 0.3748266511303996	0.109553
C	0.9892311515702036 0.7210773406946526 0.4339160588487634	-0.182538
C	0.9114294013978741 0.7178648850039410 0.4313929328269027	0.104630
C	0.1096939547626647 0.7734512942200937 0.3761347971293897	0.060137
C	0.1534559928205724 0.7093303918213130 0.3790124642369089	-0.172086
C	0.2325377625418259 0.7137582838393687 0.3779990053989636	0.083691
C	0.2216469781628841 0.8513032262553554 0.3754295318113307	-0.121632
C	0.1448162097001357 0.8450447664901066 0.3732990800205159	-0.136449
C	0.7994188991940836 0.9068911795111253 0.8132156051851720	0.105009
C	0.8080407215376499 0.9843719682599656 0.8140333140515605	-0.182312
C	0.7676776676410473 0.0273325954890085 0.8748266511303995	0.109552
C	0.7210773406946526 0.9892311515702036 0.9339160908487590	-0.182538
C	0.7178648850039410 0.9114294013978741 0.9313929008269001	0.104630
C	0.7734512942200937 0.1096939547626647 0.8761347331293916	0.060137
C	0.7093303918213130 0.1534559928205724 0.8790124962369114	-0.172086
C	0.7137582838393687 0.2325377625418259 0.8779989423989691	0.083693
C	0.8513032262553554 0.2216469781628841 0.8754295318113309	-0.121630
C	0.8450447664901066 0.1448162097001357 0.8732990800205155	-0.136449
C	0.7005811008059164 0.5931088204888747 0.8132156051851720	0.105009
C	0.6919592784623501 0.5156280317400344 0.8140333140515605	-0.182312
C	0.7323223323589527 0.4726674265109934 0.8748266511303995	0.109553
C	0.7789226593053474 0.5107689014297973 0.9339160908487590	-0.182538
C	0.7821351149960590 0.5885705986021259 0.9313929008269001	0.104629
C	0.7265487057799063 0.3903060452373353 0.8761347331293916	0.060137
C	0.7906696081786870 0.3465439941794299 0.8790124962369114	-0.172085
C	0.7862417161606313 0.2674622374581740 0.8779989423989691	0.083691
C	0.6486967737446446 0.2783530218371157 0.8754295318113309	-0.121632
C	0.6549552335098934 0.3551837642998622 0.8732990800205155	-0.136448
C	0.5931088204888747 0.7994188991940836 0.8132156051851720	0.105009
C	0.5156280317400344 0.8080407215376499 0.8140333140515605	-0.182311
C	0.4726674265109934 0.7676776676410473 0.8748266511303995	0.109552
C	0.5107689014297973 0.7210773406946526 0.9339160908487590	-0.182537
C	0.5885705986021259 0.7178648850039410 0.9313929008269001	0.104629
C	0.3903060452373353 0.7734512942200937 0.8761347331293916	0.060138
C	0.3465439941794299 0.7093303918213130 0.8790124962369114	-0.172086
C	0.2674622374581740 0.7137582838393687 0.8779989423989691	0.083694
C	0.2783530218371157 0.8513032262553554 0.8754295318113309	-0.121630
C	0.3551837642998622 0.8450447664901066 0.8732990800205155	-0.136449
C	0.9068911795111253 0.7005811008059164 0.8132156051851720	0.105009
C	0.9843719682599656 0.6919592784623501 0.8140333140515605	-0.182311
C	0.0273325954890085 0.7323223323589527 0.8748266511303995	0.109552
C	0.9892311515702036 0.7789226593053474 0.9339160908487590	-0.182538
C	0.9114294013978741 0.7821351149960590 0.9313929008269001	0.104630
C	0.1096939547626647 0.7265487057799063 0.8761347331293916	0.060137
C	0.1534559928205724 0.7906696081786870 0.8790124962369114	-0.172086
C	0.2325377625418259 0.7862417161606313 0.8779989423989691	0.083691
C	0.2216469781628841 0.6486967737446446 0.8754295318113309	-0.121632
C	0.1448162097001357 0.6549552335098934 0.8732990800205155	-0.136449
C	0.2002216760247725 0.4070832780362560 0.6863859007968481	0.103422
C	0.1919794225444344 0.4845250272783150 0.6857898804570240	-0.183300
C	0.2325448227447915 0.5273288979867479 0.6250386106375918	0.109933
C	0.2789477480640418 0.4890390765084975 0.5658854003840340	-0.181070
C	0.2817538881389078 0.4111421034999746 0.5681696887287601	0.106224
C	0.2266508363542267 0.6096849059780997 0.6237666599008251	0.059687
C	0.2907358140356476 0.6534902139059813 0.6209769680330339	-0.172520
C	0.2862419006202703 0.7325571261975676 0.6220800895356706	0.083807
C	0.1487161165470889 0.7216009443196042 0.6246594131757736	-0.121791
C	0.1550257463721572 0.6447616551461441 0.6266831130395721	-0.135628
C	0.2997783369752320 0.0929167019637422 0.6863859007968481	0.103421
C	0.3080205904555703 0.0154749827216789 0.6857898804570240	-0.183300
C	0.2674551772552085 0.9726711020132521 0.6250386106375918	0.109934
C	0.2210522519359583 0.0109609384915000 0.5658854003840340	-0.181070
C	0.2182461118610921 0.0888578895000212 0.5681696887287601	0.106224
C	0.2733491636457732 0.8903150940219003 0.6237666599008251	0.059687
C	0.2092641729643549 0.8465097860940187 0.6209769680330339	-0.172520
C	0.2137580993797298 0.7674428738024324 0.6220800895356706	0.083805
C	0.3512838834529111 0.7783990556803958 0.6246594131757736	-0.121793
C	0.3449742536278426 0.8552383448538559 0.6266831130395721	-0.135627
C	0.4070832780362560 0.2997783369752320 0.6863859007968481	0.103422
C	0.4845250272783150 0.3080205904555703 0.6857898804570240	-0.183300
C	0.5273288979867479 0.2674551772552085 0.6250386106375918	0.109934
C	0.4890390765084975 0.2210522519359583 0.5658854003840340	-0.181069
C	0.4111421034999746 0.2182461118610921 0.5681696887287601	0.106224
C	0.6096849059780997 0.2733491636457732 0.6237666599008251	0.059687
C	0.6534902139059813 0.2092641729643549 0.6209769680330339	-0.172521
C	0.7325571261975676 0.2137580993797298 0.6220800895356706	0.083807
C	0.7216009443196042 0.3512838834529111 0.6246594131757736	-0.121791
C	0.6447616551461441 0.3449742536278426 0.6266831130395721	-0.135628
C	0.0929167019637422 0.2002216760247725 0.6863859007968481	0.103421
C	0.0154749827216789 0.1919794225444344 0.6857898804570240	-0.183299
C	0.9726711020132521 0.2325448227447915 0.6250386106375918	0.109933
C	0.0109609384915000 0.2789477480640418 0.5658854003840340	-0.181070
C	0.0888578895000212 0.2817538881389078 0.5681696887287601	0.106225
C	0.8903150940219003 0.2266508363542267 0.6237666599008251	0.059688
C	0.8465097860940187 0.2907358140356476 0.6209769680330339	-0.172520
C	0.7674428738024324 0.2862419006202703 0.6220800895356706	0.083805
C	0.7783990556803958 0.1487161165470889 0.6246594131757736	-0.121792
C	0.8552383448538559 0.1550257463721572 0.6266831130395721	-0.135627
H	0.1723270527935244 0.1278000107917953 0.2353359858936483	0.100523
H	0.1559812256767463 0.9882893146704028 0.2339390349554182	0.112565
H	0.3107445141626557 0.9800120089609397 0.0167810208829293	0.112891
H	0.3140082509338302 0.1210175260871431 0.0203272779228192	0.105033
H	0.3459185279292356 0.8730592015547820 0.1204731942109918	0.108318
H	0.0936109495153530 0.7517135264170899 0.1254889136088620	0.107706
H	0.1050000856319918 0.8904690446833283 0.1286690671581323	0.098850
H	0.3276729342064780 0.3722000162082034 0.2353359858936483	0.100523
H	0.3440187873232513 0.5117107383295980 0.2339390349554182	0.112565
H	0.1892554728373466 0.5199879370390559 0.0167810208829293	0.112891
H	0.1859917490661698 0.3789824599128559 0.0203272779228192	0.105033
H	0.1540814720707644 0.6269407984452180 0.1204731942109918	0.108316
H	0.4063890304846523 0.7482864735829101 0.1254889136088620	0.107703
H	0.3949999143680081 0.6095309553166717 0.1286690671581323	0.098850
H	0.3722000162082034 0.1723270527935244 0.2353359858936483	0.100523
H	0.5117107383295980 0.1559812256767463 0.2339390349554182	0.112565
H	0.5199879370390559 0.3107445141626557 0.0167810208829293	0.112892
H	0.3789824599128559 0.3140082509338302 0.0203272779228192	0.105033
H	0.6269407984452180 0.3459185279292356 0.1204731942109918	0.108319
H	0.7482864735829101 0.0936109495153530 0.1254889136088620	0.107706
H	0.6095309553166717 0.1050000856319918 0.1286690671581323	0.098851
H	0.1278000107917953 0.3276729342064780 0.2353359858936483	0.100523
H	0.9882893146704028 0.3440187873232513 0.2339390349554182	0.112566
H	0.9800120089609397 0.1892554728373466 0.0167810208829293	0.112892
H	0.1210175260871431 0.1859917490661698 0.0203272779228192	0.105033
H	0.8730592015547820 0.1540814720707644 0.1204731942109918	0.108317
H	0.7517135264170899 0.4063890304846523 0.1254889136088620	0.107703
H	0.8904690446833283 0.3949999143680081 0.1286690671581323	0.098851
H	0.8266897866458817 0.6282260344527247 0.2639970681337668	0.105361
H	0.8440586858259953 0.4884223747983460 0.2658962771418742	0.112501
H	0.6892980424817927 0.4798497333246823 0.4830470384258821	0.113176
H	0.6849708276259737 0.6203903510540310 0.4789287755488502	0.099896
H	0.6541364449463205 0.3730914953921270 0.3795722988039337	0.108333
H	0.9064075464401533 0.2516541777051738 0.3746439152714532	0.107616
H	0.8950582809435850 0.3904269195186103 0.3713827214514464	0.099089
H	0.6733102133541183 0.8717739655472753 0.2639970681337668	0.105362
H	0.6559413141740047 0.0115775902016475 0.2658962771418742	0.112501
H	0.8107019575182073 0.0201502936753235 0.4830470384258821	0.113176
H	0.8150291723740263 0.8796096489459690 0.4789287755488502	0.099897
H	0.8458635550536795 0.1269085046078731 0.3795722988039337	0.108329
H	0.5935924535598467 0.2483458222948262 0.3746439152714532	0.107614
H	0.6049417190564150 0.1095730804813897 0.3713827214514464	0.099090
H	0.6282260344527247 0.6733102133541183 0.2639970681337668	0.105361
H	0.4884223747983460 0.6559413141740047 0.2658962771418742	0.112501
H	0.4798497333246823 0.8107019575182073 0.4830470384258821	0.113177
H	0.6203903510540310 0.8150291723740263 0.4789287755488502	0.099896
H	0.3730914953921270 0.8458635550536795 0.3795722988039337	0.108333
H	0.2516541777051738 0.5935924535598467 0.3746439152714532	0.107616
H	0.3904269195186103 0.6049417190564150 0.3713827214514464	0.099092
H	0.8717739655472753 0.8266897866458817 0.2639970681337668	0.105362
H	0.0115775902016475 0.8440586858259953 0.2658962771418742	0.112502
H	0.0201502936753235 0.6892980424817927 0.4830470384258821	0.113176
H	0.8796096489459690 0.6849708276259737 0.4789287755488502	0.099897
H	0.1269085046078731 0.6541364449463205 0.3795722988039337	0.108331
H	0.2483458222948262 0.9064075464401533 0.3746439152714532	0.107613
H	0.1095730804813897 0.8950582809435850 0.3713827214514464	0.099091
H	0.8266897866458817 0.8717739655472753 0.7639970531337621	0.105362
H	0.8440586858259953 0.0115775902016475 0.7658962931418755	0.112501
H	0.6892980424817927 0.0201502936753235 0.9830470384258818	0.113174
H	0.6849708276259737 0.8796096489459690 0.9789287755488504	0.099897
H	0.6541364449463205 0.1269085046078731 0.8795722678039273	0.108331
H	0.9064075464401533 0.2483458222948262 0.8746439152714535	0.107615
H	0.8950582809435850 0.1095730804813897 0.8713827534514421	0.099091
H	0.6733102133541183 0.6282260344527247 0.7639970531337621	0.105361
H	0.6559413141740047 0.4884223747983460 0.7658962931418755	0.112500
H	0.8107019575182073 0.4798497333246823 0.9830470384258818	0.113175
H	0.8150291723740263 0.6203903510540310 0.9789287755488504	0.099897
H	0.8458635550536795 0.3730914953921270 0.8795722678039273	0.108329
H	0.5935924535598467 0.2516541777051738 0.8746439152714535	0.107613
H	0.6049417190564150 0.3904269195186103 0.8713827534514421	0.099091
H	0.6282260344527247 0.8266897866458817 0.7639970531337621	0.105361
H	0.4884223747983460 0.8440586858259953 0.7658962931418755	0.112501
H	0.4798497333246823 0.6892980424817927 0.9830470384258818	0.113175
H	0.6203903510540310 0.6849708276259737 0.9789287755488504	0.099897
H	0.3730914953921270 0.6541364449463205 0.8795722678039273	0.108333
H	0.2516541777051738 0.9064075464401533 0.8746439152714535	0.107615
H	0.3904269195186103 0.8950582809435850 0.8713827534514421	0.099093
H	0.8717739655472753 0.6733102133541183 0.7639970531337621	0.105362
H	0.0115775902016475 0.6559413141740047 0.7658962931418755	0.112501
H	0.0201502936753235 0.8107019575182073 0.9830470384258818	0.113175
H	0.8796096489459690 0.8150291723740263 0.9789287755488504	0.099897
H	0.1269085046078731 0.8458635550536795 0.8795722678039273	0.108330
H	0.2483458222948262 0.5935924535598467 0.8746439152714535	0.107613
H	0.1095730804813897 0.6049417190564150 0.8713827534514421	0.099092
H	0.1723270527935244 0.3722000162082034 0.7353360008936530	0.100523
H	0.1559812256767463 0.5117107383295980 0.7339390189554170	0.112565
H	0.3107445141626558 0.5199879370390559 0.5167810578829288	0.112890
H	0.3140082509338302 0.3789824599128559 0.5203272639228178	0.105034
H	0.3459185279292356 0.6269407984452180 0.6204732182109932	0.108320
H	0.0936109495153530 0.7482864735829101 0.6254889056088614	0.107703
H	0.1050000856319918 0.6095309553166717 0.6286690511581379	0.098851
H	0.3276729342064780 0.1278000107917953 0.7353360008936530	0.100523
H	0.3440187873232513 0.9882893146704028 0.7339390189554170	0.112565
H	0.1892554728373466 0.9800120089609397 0.5167810578829288	0.112890
H	0.1859917490661698 0.1210175260871431 0.5203272639228178	0.105033
H	0.1540814720707644 0.8730592015547820 0.6204732182109932	0.108318
H	0.4063890304846523 0.7517135264170899 0.6254889056088614	0.107701
H	0.3949999143680081 0.8904690446833283 0.6286690511581379	0.098850
H	0.3722000162082034 0.3276729342064780 0.7353360008936530	0.100523
H	0.5117107383295980 0.3440187873232513 0.7339390189554170	0.112566
H	0.5199879370390559 0.1892554728373466 0.5167810578829288	0.112890
H	0.3789824599128559 0.1859917490661698 0.5203272639228178	0.105034
H	0.6269407984452180 0.1540814720707644 0.6204732182109932	0.108321
H	0.7482864735829101 0.4063890304846523 0.6254889056088614	0.107703
H	0.6095309553166717 0.3949999143680081 0.6286690511581379	0.098852
H	0.1278000107917953 0.1723270527935244 0.7353360008936530	0.100523
H	0.9882893146704028 0.1559812256767463 0.7339390189554170	0.112565
H	0.9800120089609397 0.3107445141626557 0.5167810578829288	0.112891
H	0.1210175260871431 0.3140082509338302 0.5203272639228178	0.105033
H	0.8730592015547820 0.3459185279292356 0.6204732182109932	0.108319
H	0.7517135264170899 0.0936109495153530 0.6254889056088614	0.107701
H	0.8904690446833283 0.1050000856319918 0.6286690511581379	0.098852
F	0.3084343702078892 0.1644355099443928 0.3818016166969332	-0.593639
F	0.1915656297921108 0.3355644900556074 0.3818016166969332	-0.593640
F	0.3355644900556074 0.3084343702078892 0.3818016166969332	-0.593640
F	0.1644355099443928 0.1915656297921108 0.3818016166969332	-0.593640
F	0.6917758933665836 0.6643036170304663 0.1244261449809567	-0.592985
F	0.8082241066334164 0.8356963829695337 0.1244261449809567	-0.592985
F	0.6643036170304663 0.8082241066334164 0.1244261449809567	-0.592986
F	0.8356963829695337 0.6917758933665836 0.1244261449809567	-0.592985
F	0.6917758933665836 0.8356963829695337 0.6244261369809561	-0.592986
F	0.8082241066334164 0.6643036170304663 0.6244261369809561	-0.592985
F	0.6643036170304663 0.6917758933665836 0.6244261369809561	-0.592985
F	0.8356963829695337 0.8082241066334164 0.6244261369809561	-0.592985
F	0.3084343702078892 0.3355644900556074 0.8818016166969330	-0.593640
F	0.1915656297921108 0.1644355099443928 0.8818016166969330	-0.593640
F	0.3355644900556074 0.1915656297921108 0.8818016166969330	-0.593639
F	0.1644355099443928 0.3084343702078892 0.8818016166969330	-0.593640
F	0.2500000000000000 0.2500000000000000 0.4989021223572044	-0.614789
F	0.7500000000000000 0.7500000000000000 0.2417547460004195	-0.614325
F	0.7500000000000000 0.7500000000000000 0.7417547770004188	-0.614326
F	0.2500000000000000 0.2500000000000000 -0.0010978456428000	-0.614788
O	0.2500000000000000 0.2500000000000000 0.2610665791128535	-0.830150
O	0.7500000000000000 0.7500000000000000 0.0038879615406362	-0.827442
O	0.7500000000000000 0.7500000000000000 0.5038879665406327	-0.827442
O	0.2500000000000000 0.2500000000000000 0.7610665641128488	-0.830151
Zn	0.2500000000000000 0.2500000000000000 0.1289039208086907	0.783519
Zn	0.7500000000000000 0.7500000000000000 0.3719083294581005	0.781158
Zn	0.7500000000000000 0.7500000000000000 0.8719082654580954	0.781159
Zn	0.2500000000000000 0.2500000000000000 0.6289039688086944	0.783520
V	0.2500000000000000 0.2500000000000000 0.3690953275985295	2.291486
V	0.7500000000000000 0.7500000000000000 0.1119095153013901	2.287385
V	0.7500000000000000 0.7500000000000000 0.6119095313013846	2.287385
V	0.2500000000000000 0.2500000000000000 0.8690953275985295	2.291486
	  	
