#======================================================================

# CRYSTAL DATA

#----------------------------------------------------------------------

data_VESTA_phase_1


_pd_phase_name                         ZrFSIX_15_Zn_i
_cell_length_a                         29.93192
_cell_length_b                         29.11069
_cell_length_c                         8.36304
_cell_angle_alpha                      90
_cell_angle_beta                       90
_cell_angle_gamma                      90
_symmetry_space_group_name_H-M         P 1
_symmetry_Int_Tables_number            1

loop_
_symmetry_equiv_pos_as_xyz
   x, y, z

loop_
   _atom_site_label
   _atom_site_fract_x
   _atom_site_fract_y
   _atom_site_fract_z
   _atom_site_charge
C	0.9329676013826130 0.1021173891560895 0.8885627423213535	0.110597
C	0.9010158128227022 0.0676411149310567 0.8943097254086892	-0.161745
C	0.7698629714797951 0.9362367442469335 0.8959364573194737	-0.113825
C	0.7358355817376234 0.9039675286341609 0.8957246954568807	-0.114364
C	0.5685904686984705 0.7419445361403773 0.8884604878176038	0.107452
C	0.6020961211989508 0.7748323835301624 0.8939964170519906	-0.167156
C	0.4329676333826085 0.6021174051560907 0.8885627423213535	0.110597
C	0.4010158448227044 0.5676410779310577 0.8943097254086892	-0.161745
C	0.2698629074797967 0.4362367772469326 0.8959364573194737	-0.113825
C	0.2358355497376211 0.4039675946341661 0.8957246954568807	-0.114365
C	0.0685904926984722 0.2419445191403798 0.8884604878176037	0.107394
C	0.1020960971989496 0.2748324165301614 0.8939964170519906	-0.167149
C	0.0670323666173913 0.8978825948439093 0.3885627733213526	0.110597
C	0.0989841631772963 0.9323589220689423 0.3943097574086846	-0.161746
C	0.2301370445202064 0.0637632187530672 0.3959365193194719	-0.113827
C	0.2641644342623776 0.0960324213658352 0.3957246954568810	-0.114356
C	0.4314094993015269 0.2580555138596193 0.3884605188176028	0.107403
C	0.3979038788010483 0.2251675834698387 0.3939964170519902	-0.167123
C	0.5670323986173870 0.3978826278439083 0.3885627733213526	0.110598
C	0.5989841871772978 0.4323589220689428 0.3943097574086846	-0.161746
C	0.7301370285202049 0.5637632557530665 0.3959365193194719	-0.113827
C	0.7641644182623766 0.5960324713658391 0.3957246954568810	-0.114356
C	0.9314095313015295 0.7580554638596227 0.3884605188176028	0.107460
C	0.8979038788010492 0.7251676164698376 0.3939964170519902	-0.167156
C	0.0670323666173913 0.1021173891560895 0.6114372266786475	0.110597
C	0.0989841631772963 0.0676411149310567 0.6056901805913101	-0.161744
C	0.2301370445202064 0.9362367442469335 0.6040635116805273	-0.113825
C	0.2641644342623776 0.9039675286341609 0.6042753355431183	-0.114364
C	0.4314094993015269 0.7419445361403773 0.6115394181823955	0.107383
C	0.3979038788010483 0.7748323835301624 0.6060035519480104	-0.167083
C	0.5670323986173870 0.6021174051560907 0.6114372266786475	0.110597
C	0.5989841871772978 0.5676410779310577 0.6056901805913101	-0.161745
C	0.7301370285202049 0.4362367772469326 0.6040635116805272	-0.113825
C	0.7641644182623766 0.4039675946341661 0.6042753355431183	-0.114364
C	0.9314095313015295 0.2419445191403798 0.6115394181823955	0.107457
C	0.8979038788010492 0.2748324165301614 0.6060035519480104	-0.167156
C	0.9329676013826130 0.8978825948439093 0.1114372426786487	0.110597
C	0.9010158128227022 0.9323589220689423 0.1056902195913098	-0.161745
C	0.7698629714797951 0.0637632187530672 0.1040635116805272	-0.113824
C	0.7358355817376234 0.0960324213658352 0.1042753205431133	-0.114365
C	0.5685904686984705 0.2580555138596193 0.1115394731823966	0.107463
C	0.6020961211989508 0.2251675834698387 0.1060035979480076	-0.167185
C	0.4329676333826085 0.3978826278439083 0.1114372426786487	0.110597
C	0.4010158448227044 0.4323589220689428 0.1056902195913098	-0.161745
C	0.2698629074797967 0.5637632557530665 0.1040635116805272	-0.113824
C	0.2358355497376211 0.5960324713658391 0.1042753205431133	-0.114365
C	0.0685904926984722 0.7580554638596227 0.1115394731823966	0.107403
C	0.1020960971989496 0.7251676164698376 0.1060035979480076	-0.167149
C	0.0670323666173913 0.8978825948439093 0.1114372426786487	0.110598
C	0.0989841631772963 0.9323589220689423 0.1056902195913098	-0.161745
C	0.2301370445202064 0.0637632187530672 0.1040635116805272	-0.113824
C	0.2641644342623776 0.0960324213658352 0.1042753205431133	-0.114365
C	0.4314094993015268 0.2580555138596193 0.1115394731823966	0.107403
C	0.3979038788010483 0.2251675834698387 0.1060035979480076	-0.167122
C	0.5670323986173870 0.3978826278439083 0.1114372426786487	0.110598
C	0.5989841871772978 0.4323589220689428 0.1056902195913098	-0.161746
C	0.7301370285202049 0.5637632557530665 0.1040635116805272	-0.113824
C	0.7641644182623766 0.5960324713658391 0.1042753205431133	-0.114365
C	0.9314095313015295 0.7580554638596227 0.1115394731823966	0.107461
C	0.8979038788010492 0.7251676164698376 0.1060035979480076	-0.167155
C	0.9329676013826130 0.1021173891560895 0.6114372266786475	0.110597
C	0.9010158128227022 0.0676411149310567 0.6056901805913101	-0.161745
C	0.7698629714797951 0.9362367442469335 0.6040635116805273	-0.113825
C	0.7358355817376234 0.9039675286341609 0.6042753355431183	-0.114364
C	0.5685904686984705 0.7419445361403773 0.6115394181823955	0.107457
C	0.6020961211989508 0.7748323835301624 0.6060035519480104	-0.167155
C	0.4329676333826085 0.6021174051560907 0.6114372266786475	0.110597
C	0.4010158448227044 0.5676410779310577 0.6056901805913101	-0.161745
C	0.2698629074797967 0.4362367772469326 0.6040635116805273	-0.113825
C	0.2358355497376211 0.4039675946341661 0.6042753355431183	-0.114365
C	0.0685904926984722 0.2419445191403798 0.6115394181823955	0.107400
C	0.1020960971989496 0.2748324165301614 0.6060035519480104	-0.167148
C	0.9329676013826130 0.8978825948439093 0.3885627733213526	0.110598
C	0.9010158128227022 0.9323589220689423 0.3943097574086846	-0.161746
C	0.7698629714797951 0.0637632187530672 0.3959365193194719	-0.113826
C	0.7358355817376234 0.0960324213658352 0.3957246954568810	-0.114356
C	0.5685904686984705 0.2580555138596193 0.3884605188176028	0.107463
C	0.6020961211989508 0.2251675834698387 0.3939964170519902	-0.167184
C	0.4329676333826085 0.3978826278439083 0.3885627733213526	0.110598
C	0.4010158448227044 0.4323589220689428 0.3943097574086846	-0.161745
C	0.2698629074797967 0.5637632557530665 0.3959365193194719	-0.113826
C	0.2358355497376211 0.5960324713658391 0.3957246954568810	-0.114356
C	0.0685904926984722 0.7580554638596227 0.3884605188176028	0.107403
C	0.1020960971989496 0.7251676164698376 0.3939964170519902	-0.167148
C	0.0670323666173913 0.1021173891560895 0.8885627423213535	0.110597
C	0.0989841631772963 0.0676411149310567 0.8943097254086892	-0.161744
C	0.2301370445202064 0.9362367442469335 0.8959364573194737	-0.113825
C	0.2641644342623776 0.9039675286341609 0.8957246954568807	-0.114364
C	0.4314094993015269 0.7419445361403773 0.8884604878176037	0.107397
C	0.3979038788010483 0.7748323835301624 0.8939964170519906	-0.167089
C	0.5670323986173870 0.6021174051560907 0.8885627423213535	0.110597
C	0.5989841871772978 0.5676410779310577 0.8943097254086892	-0.161745
C	0.7301370285202049 0.4362367772469326 0.8959364573194737	-0.113825
C	0.7641644182623766 0.4039675946341661 0.8957246954568807	-0.114364
C	0.9314095313015295 0.2419445191403798 0.8884604878176037	0.107452
C	0.8979038788010492 0.2748324165301614 0.8939964170519906	-0.167156
C	0.6540410076726106 0.8254838003059545 0.7500000160000013	-0.105983
C	0.8841850696742095 0.0496794454235522 0.7500000160000013	0.164284
C	0.8217087217606119 0.9860370796913567 0.7500000160000013	-0.098715
C	0.6197939039035264 0.7921327228690038 0.7500000160000013	0.172873
C	0.7873391939709017 0.9528469971550574 0.7500000160000013	0.129411
C	0.7182580304824800 0.8872721769142813 0.7500000160000013	0.137286
C	0.6837417562948901 0.8542114195579736 0.7500000160000013	-0.096088
C	0.8510433645079940 0.0151755357063728 0.7500000160000013	-0.106568
C	0.1540409916726095 0.3254838003059541 0.7500000160000013	-0.105982
C	0.3841849736742083 0.5496794574235533 0.7500000160000013	0.164283
C	0.3217087217606115 0.4860370796913563 0.7500000160000013	-0.098715
C	0.1197938959035258 0.2921327228690040 0.7500000160000013	0.172868
C	0.2873391619709063 0.4528469971550577 0.7500000160000013	0.129411
C	0.2182580144824788 0.3872722099142801 0.7500000160000013	0.137287
C	0.1837417232948909 0.3542113865579742 0.7500000160000013	-0.096088
C	0.3510433325079907 0.5151755307063691 0.7500000160000013	-0.106568
C	0.3459590243273916 0.1745161996940456 0.2500000000000000	-0.105982
C	0.1158150023257969 0.9503205425764467 0.2500000000000000	0.164284
C	0.1782912782393884 0.0139629163086431 0.2500000000000000	-0.098714
C	0.3802060960964734 0.2078672611309948 0.2500000000000000	0.172848
C	0.2126608220290994 0.0471529948449416 0.2500000000000000	0.129407
C	0.2817419695175197 0.1127277820857192 0.2500000000000000	0.137284
C	0.3162582767051091 0.1457885804420266 0.2500000000000000	-0.096087
C	0.1489566674920092 0.9848244362936317 0.2500000000000000	-0.106569
C	0.8459589923273894 0.6745161996940455 0.2500000000000000	-0.105983
C	0.6158149303257905 0.4503205755764458 0.2500000000000000	0.164284
C	0.6782912782393881 0.5139629203086433 0.2500000000000000	-0.098714
C	0.8802060960964736 0.7078672771309962 0.2500000000000000	0.172873
C	0.7126608060290983 0.5471530358449418 0.2500000000000000	0.129407
C	0.7817419695175200 0.6127278230857187 0.2500000000000000	0.137284
C	0.8162582437051099 0.6457885804420264 0.2500000000000000	-0.096088
C	0.6489566354920060 0.4848244362936320 0.2500000000000000	-0.106569
C	0.3459590243273916 0.8254838003059545 0.7500000160000013	-0.105983
C	0.1158150023257969 0.0496794454235522 0.7500000160000013	0.164284
C	0.1782912782393884 0.9860370796913567 0.7500000160000013	-0.098715
C	0.3802060960964734 0.7921327228690038 0.7500000160000013	0.172842
C	0.2126608220290994 0.9528469971550574 0.7500000160000013	0.129411
C	0.2817419695175197 0.8872721769142813 0.7500000160000013	0.137286
C	0.3162582767051091 0.8542114195579736 0.7500000160000013	-0.096087
C	0.1489566674920092 0.0151755357063728 0.7500000160000013	-0.106568
C	0.8459589923273894 0.3254838003059541 0.7500000160000013	-0.105983
C	0.6158149303257905 0.5496794574235533 0.7500000160000013	0.164283
C	0.6782912782393881 0.4860370796913563 0.7500000160000013	-0.098715
C	0.8802060960964736 0.2921327228690040 0.7500000160000013	0.172873
C	0.7126608060290983 0.4528469971550577 0.7500000160000013	0.129411
C	0.7817419695175200 0.3872722099142801 0.7500000160000013	0.137287
C	0.8162582437051099 0.3542113865579742 0.7500000160000013	-0.096088
C	0.6489566354920060 0.5151755307063691 0.7500000160000013	-0.106568
C	0.6540410076726106 0.1745161996940456 0.2500000000000000	-0.105979
C	0.8841850696742095 0.9503205425764467 0.2500000000000000	0.164284
C	0.8217087217606119 0.0139629163086431 0.2500000000000000	-0.098714
C	0.6197939039035264 0.2078672611309948 0.2500000000000000	0.172873
C	0.7873391939709017 0.0471529948449416 0.2500000000000000	0.129407
C	0.7182580304824800 0.1127277820857192 0.2500000000000000	0.137284
C	0.6837417562948901 0.1457885804420266 0.2500000000000000	-0.096089
C	0.8510433645079940 0.9848244362936317 0.2500000000000000	-0.106569
C	0.1540409916726095 0.6745161996940455 0.2500000000000000	-0.105982
C	0.3841849736742083 0.4503205755764458 0.2500000000000000	0.164284
C	0.3217087217606115 0.5139629203086433 0.2500000000000000	-0.098714
C	0.1197938959035258 0.7078672771309962 0.2500000000000000	0.172868
C	0.2873391619709063 0.5471530358449418 0.2500000000000000	0.129407
C	0.2182580144824788 0.6127278230857187 0.2500000000000000	0.137284
C	0.1837417232948909 0.6457885804420264 0.2500000000000000	-0.096088
C	0.3510433325079907 0.4848244362936320 0.2500000000000000	-0.106569
H	0.9463082826827554 0.1165015988895934 -0.0013118857631734	0.085580
H	0.8892257827735632 0.0548707977893970 0.0092376288669830	0.122520
H	0.7835659140091888 0.9491012134624582 0.0081533981679687	0.106490
H	0.7222545262275858 0.8910462117434230 0.0079036634940152	0.115430
H	0.5546528166113773 0.7282458693650188 -0.0012962146189607	0.084992
H	0.6144187086005786 0.7869401602800793 0.0089356583819351	0.128471
H	0.4463083786827560 0.6165016148895944 -0.0013118857631734	0.085582
H	0.3892257187735651 0.5548708267894030 0.0092376288669830	0.122519
H	0.2835659140091887 0.4491012134624586 0.0081533981679687	0.106490
H	0.2222545422275873 0.3910463107434280 0.0079036634940152	0.115430
H	0.0546528246113777 0.2282459183650190 -0.0012962146189607	0.085002
H	0.1144187246005733 0.2869400942800814 0.0089356583819351	0.128470
H	0.0536916573172397 0.8834983851104056 0.4986881432368254	0.085582
H	0.1107742652264336 0.9451291732105970 0.5092376638669822	0.122520
H	0.2164341179908139 0.0508988035375468 0.5081534301679711	0.106490
H	0.2777454737724139 0.1089537142565777 0.5079036594940147	0.115428
H	0.4453471833886228 0.2717540646349833 0.4987037853810393	0.084993
H	0.3855812913994208 0.2130598567199181 0.5089356893819342	0.128464
H	0.5536917173172446 0.3834983851104053 0.4986881432368254	0.085580
H	0.6107742172264368 0.4451292062106034 0.5092376638669822	0.122520
H	0.7164340859908112 0.5508987865375418 0.5081534301679711	0.106490
H	0.7777454737724142 0.6089537882565770 0.5079036594940147	0.115428
H	0.9453471833886227 0.7717541306349812 0.4987037853810393	0.084995
H	0.8855812913994214 0.7130598397199207 0.5089356893819342	0.128471
H	0.0536916573172397 0.1165015988895934 0.5013118877631736	0.085580
H	0.1107742652264336 0.0548707977893970 0.4907623361330105	0.122519
H	0.2164341179908139 0.9491012134624582 0.4918466018320313	0.106490
H	0.2777454737724139 0.8910462117434230 0.4920963405059851	0.115430
H	0.4453471833886228 0.7282458693650188 0.5012962466189634	0.084995
H	0.3855812913994208 0.7869401602800793 0.4910643416180648	0.128460
H	0.5536917173172446 0.6165016148895944 0.5013118877631736	0.085582
H	0.6107742172264368 0.5548708267894030 0.4907623361330105	0.122519
H	0.7164340859908112 0.4491012134624586 0.4918466018320313	0.106490
H	0.7777454737724142 0.3910463107434280 0.4920963405059851	0.115430
H	0.9453471833886227 0.2282459183650190 0.5012962466189634	0.084996
H	0.8855812913994214 0.2869400942800814 0.4910643416180648	0.128472
H	0.9463082826827554 0.8834983851104056 0.0013118877631736	0.085582
H	0.8892257827735632 0.9451291732105970 0.9907623051330117	0.122520
H	0.7835659140091888 0.0508988035375468 0.9918466018320315	0.106490
H	0.7222545262275858 0.1089537142565777 0.9920963095059792	0.115430
H	0.5546528166113773 0.2717540646349833 0.0012962146189606	0.085009
H	0.6144187086005786 0.2130598567199181 0.9910643416180648	0.128474
H	0.4463083786827560 0.3834983851104053 0.0013118877631736	0.085580
H	0.3892257187735651 0.4451292062106034 0.9907623051330117	0.122520
H	0.2835659140091887 0.5508987865375418 0.9918466018320315	0.106490
H	0.2222545422275873 0.6089537882565770 0.9920963095059792	0.115430
H	0.0546528246113777 0.7717541306349812 0.0012962146189606	0.085004
H	0.1144187246005733 0.7130598397199207 0.9910643416180648	0.128470
H	0.0536916573172397 0.8834983851104056 0.0013118877631736	0.085582
H	0.1107742652264336 0.9451291732105970 0.9907623051330117	0.122520
H	0.2164341179908139 0.0508988035375468 0.9918466018320315	0.106490
H	0.2777454737724139 0.1089537142565777 0.9920963095059792	0.115430
H	0.4453471833886228 0.2717540646349833 0.0012962146189606	0.084993
H	0.3855812913994208 0.2130598567199181 0.9910643416180648	0.128464
H	0.5536917173172446 0.3834983851104053 0.0013118877631736	0.085580
H	0.6107742172264368 0.4451292062106034 0.9907623051330117	0.122520
H	0.7164340859908112 0.5508987865375418 0.9918466018320315	0.106490
H	0.7777454737724142 0.6089537882565770 0.9920963095059792	0.115430
H	0.9453471833886227 0.7717541306349812 0.0012962146189606	0.084995
H	0.8855812913994214 0.7130598397199207 0.9910643416180648	0.128472
H	0.9463082826827554 0.1165015988895934 0.5013118877631736	0.085580
H	0.8892257827735632 0.0548707977893970 0.4907623361330105	0.122519
H	0.7835659140091888 0.9491012134624582 0.4918466018320313	0.106490
H	0.7222545262275858 0.8910462117434230 0.4920963405059851	0.115430
H	0.5546528166113773 0.7282458693650188 0.5012962466189634	0.084995
H	0.6144187086005786 0.7869401602800793 0.4910643416180648	0.128472
H	0.4463083786827560 0.6165016148895944 0.5013118877631736	0.085582
H	0.3892257187735651 0.5548708267894030 0.4907623361330105	0.122519
H	0.2835659140091887 0.4491012134624586 0.4918466018320313	0.106490
H	0.2222545422275873 0.3910463107434280 0.4920963405059851	0.115430
H	0.0546528246113777 0.2282459183650190 0.5012962466189634	0.085005
H	0.1144187246005733 0.2869400942800814 0.4910643416180648	0.128471
H	0.9463082826827554 0.8834983851104056 0.4986881432368254	0.085582
H	0.8892257827735632 0.9451291732105970 0.5092376638669822	0.122520
H	0.7835659140091888 0.0508988035375468 0.5081534301679711	0.106490
H	0.7222545262275858 0.1089537142565777 0.5079036594940147	0.115428
H	0.5546528166113773 0.2717540646349833 0.4987037853810393	0.085009
H	0.6144187086005786 0.2130598567199181 0.5089356893819342	0.128475
H	0.4463083786827560 0.3834983851104053 0.4986881432368254	0.085580
H	0.3892257187735651 0.4451292062106034 0.5092376638669822	0.122520
H	0.2835659140091887 0.5508987865375418 0.5081534301679711	0.106490
H	0.2222545422275873 0.6089537882565770 0.5079036594940147	0.115428
H	0.0546528246113777 0.7717541306349812 0.4987037853810393	0.085003
H	0.1144187246005733 0.7130598397199207 0.5089356893819342	0.128471
H	0.0536916573172397 0.1165015988895934 -0.0013118857631734	0.085580
H	0.1107742652264336 0.0548707977893970 0.0092376288669830	0.122519
H	0.2164341179908139 0.9491012134624582 0.0081533981679687	0.106490
H	0.2777454737724139 0.8910462117434230 0.0079036634940152	0.115430
H	0.4453471833886228 0.7282458693650188 -0.0012962146189607	0.084979
H	0.3855812913994208 0.7869401602800793 0.0089356583819351	0.128461
H	0.5536917173172446 0.6165016148895944 -0.0013118857631734	0.085582
H	0.6107742172264368 0.5548708267894030 0.0092376288669830	0.122519
H	0.7164340859908112 0.4491012134624586 0.0081533981679687	0.106490
H	0.7777454737724142 0.3910463107434280 0.0079036634940152	0.115430
H	0.9453471833886227 0.2282459183650190 -0.0012962146189607	0.084993
H	0.8855812913994214 0.2869400942800814 0.0089356583819351	0.128471
Zn	0.5000000000000000 0.6728959465655746 0.7500000160000013	0.750440
Zn	-0.0000000000000000 0.1728959635655725 0.7500000160000013	0.750430
Zn	0.5000000000000000 0.3271040534344255 0.2500000000000000	0.750438
Zn	-0.0000000000000000 0.8271040534344254 0.2500000000000000	0.750435
Zr	0.5000000000000000 0.6726340374415816 0.2500000000000000	2.458773
Zr	-0.0000000000000000 0.1726340374415813 0.2500000000000000	2.458741
Zr	0.5000000000000000 0.3273659945584210 0.7500000160000013	2.458740
Zr	-0.0000000000000000 0.8273659625584184 0.7500000160000013	2.458772
F	0.5000000000000000 0.7423710322502792 0.2500000000000000	-0.674551
F	0.5000000000000000 0.6028957586715135 0.2500000000000000	-0.670501
F	-0.0000000000000000 0.2423709832502786 0.2500000000000000	-0.674540
F	-0.0000000000000000 0.1028957426715122 0.2500000000000000	-0.670509
F	0.5000000000000000 0.2576290167497215 0.7500000160000013	-0.674541
F	0.5000000000000000 0.3971042083284870 0.7500000160000013	-0.670509
F	-0.0000000000000000 0.7576289677497208 0.7500000160000013	-0.674551
F	-0.0000000000000000 0.8971042413284865 0.7500000160000013	-0.670501
F	0.5678618377958963 0.6727464889042113 0.2500000000000000	-0.674189
F	0.0678618577958982 0.1727465219042101 0.2500000000000000	-0.674179
F	0.4321381302041006 0.3272534450957905 0.7500000160000013	-0.674176
F	0.9321381622041037 0.8272535110957887 0.7500000160000013	-0.674189
F	0.4321381302041006 0.6727464889042113 0.2500000000000000	-0.674188
F	0.9321381622041037 0.1727465219042101 0.2500000000000000	-0.674178
F	0.5678618377958963 0.3272534450957905 0.7500000160000013	-0.674178
F	0.0678618577958982 0.8272535110957887 0.7500000160000013	-0.674189
F	0.5000000000000000 0.6727933781321792 0.4996492463929195	-0.601877
F	-0.0000000000000000 0.1727933951321772 0.4996492463929195	-0.601870
F	0.5000000000000000 0.3272066548678197 -0.0003507536070805	-0.601868
F	-0.0000000000000000 0.8272066218678208 -0.0003507536070807	-0.601876
F	0.5000000000000000 0.6727933781321792 0.0003507496070803	-0.601876
F	-0.0000000000000000 0.1727933951321772 0.0003507496070803	-0.601870
F	0.5000000000000000 0.3272066548678197 0.5003507216070854	-0.601868
F	-0.0000000000000000 0.8272066218678208 0.5003507216070854	-0.601876
N	0.5518655048322587 0.7254623373891517 0.7500000160000013	-0.229815
N	0.9488655229432450 0.1193616173844580 0.7500000160000013	-0.231580
N	0.0518654688322557 0.2254623213891503 0.7500000160000013	-0.229749
N	0.4488655229432446 0.6193616013844567 0.7500000160000013	-0.231578
N	0.4481345591677396 0.2745376626108483 0.2500000000000000	-0.229769
N	0.0511344850567558 0.8806383986155433 0.2500000000000000	-0.231580
N	0.9481344951677413 0.7745376626108483 0.2500000000000000	-0.229831
N	0.5511344770567550 0.3806383986155434 0.2500000000000000	-0.231579
N	0.4481345591677396 0.7254623373891517 0.7500000160000013	-0.229792
N	0.0511344850567558 0.1193616173844580 0.7500000160000013	-0.231579
N	0.9481344951677413 0.2254623213891503 0.7500000160000013	-0.229816
N	0.5511344770567550 0.6193616013844567 0.7500000160000013	-0.231581
N	0.5518655048322587 0.2745376626108483 0.2500000000000000	-0.229817
N	0.9488655229432450 0.8806383986155433 0.2500000000000000	-0.231580
N	0.0518654688322557 0.7745376626108483 0.2500000000000000	-0.229765
N	0.4488655229432446 0.3806383986155434 0.2500000000000000	-0.231578
	  	
