#======================================================================

# CRYSTAL DATA

#----------------------------------------------------------------------

data_VESTA_phase_1


_pd_phase_name                         ZrFSIX_15_Ni_i
_cell_length_a                         29.30030
_cell_length_b                         28.37759
_cell_length_c                         8.84009
_cell_angle_alpha                      90
_cell_angle_beta                       90
_cell_angle_gamma                      90
_symmetry_space_group_name_H-M         P 1
_symmetry_Int_Tables_number            1

loop_
_symmetry_equiv_pos_as_xyz
   x, y, z

loop_
   _atom_site_label
   _atom_site_fract_x
   _atom_site_fract_y
   _atom_site_fract_z
   _atom_site_charge
C	0.9371404210244401 0.1064184148888464 0.8816794682780059	0.094903
C	0.9044318028500098 0.0711846326061403 0.8864374091911829	-0.157576
C	0.7703210498258153 0.9364731952272127 0.8879588153853608	-0.115475
C	0.7354186968282519 0.9035523737819804 0.8877991844290255	-0.113055
C	0.5642889574395885 0.7377255168712707 0.8815618632490397	0.091025
C	0.5985057971066605 0.7714239602432837 0.8861769018694845	-0.160908
C	0.4371404530244355 0.6064184308888478 0.8816794682780059	0.094902
C	0.4044318348500123 0.5711845956061408 0.8864374091911829	-0.157575
C	0.2703209858258173 0.4364732282272119 0.8879588153853608	-0.115475
C	0.2354186648282491 0.4035524397819855 0.8877991844290255	-0.113056
C	0.0642889814395904 0.2377254998712730 0.8815618632490397	0.090963
C	0.0985057731066587 0.2714239932432828 0.8861769018694845	-0.160940
C	0.0628595469755645 0.8935815691111522 0.3816794992780051	0.094905
C	0.0955681731499882 0.9288154043938592 0.3864374411911780	-0.157584
C	0.2296789661741860 0.0635267677727878 0.3879588773853584	-0.115474
C	0.2645813191717495 0.0964475762180158 0.3877991844290324	-0.113056
C	0.4357110105604089 0.2622745331287263 0.3815618942490387	0.090962
C	0.4014942028933392 0.2285760067567172 0.3861769018694843	-0.160939
C	0.5628595789755599 0.3935816021111513 0.3816794992780051	0.094906
C	0.5955681971499902 0.4288154043938593 0.3864374411911780	-0.157584
C	0.7296789501741847 0.5635268047727873 0.3879588773853584	-0.115474
C	0.7645813031717481 0.5964476262180196 0.3877991844290324	-0.113056
C	0.9357110425604115 0.7622744831287293 0.3815618942490387	0.091025
C	0.9014942028933395 0.7285760397567163 0.3861769018694843	-0.160907
C	0.0628595469755645 0.1064184148888464 0.6183205007219951	0.094913
C	0.0955681731499882 0.0711846326061403 0.6135624968088165	-0.157568
C	0.2296789661741860 0.9364731952272127 0.6120411536146402	-0.115474
C	0.2645813191717495 0.9035523737819804 0.6122008465709735	-0.113056
C	0.4357110105604089 0.7377255168712707 0.6184380427509596	0.091025
C	0.4014942028933392 0.7714239602432837 0.6138230671305165	-0.160908
C	0.5628595789755599 0.6064184308888478 0.6183205007219951	0.094913
C	0.5955681971499902 0.5711845956061408 0.6135624968088165	-0.157568
C	0.7296789501741847 0.4364732282272119 0.6120411536146402	-0.115475
C	0.7645813031717481 0.4035524397819855 0.6122008465709735	-0.113055
C	0.9357110425604115 0.2377254998712730 0.6184380427509596	0.090963
C	0.9014942028933395 0.2714239932432828 0.6138230671305165	-0.160940
C	0.9371404210244401 0.8935815691111522 0.1183205167219964	0.094905
C	0.9044318028500098 0.9288154043938592 0.1135625358088165	-0.157584
C	0.7703210498258153 0.0635267677727878 0.1120411536146405	-0.115474
C	0.7354186968282519 0.0964475762180158 0.1122008315709618	-0.113056
C	0.5642889574395885 0.2622745331287263 0.1184380977509606	0.090962
C	0.5985057971066605 0.2285760067567172 0.1138231131305132	-0.160939
C	0.4371404530244355 0.3935816021111513 0.1183205167219964	0.094906
C	0.4044318348500123 0.4288154043938593 0.1135625358088165	-0.157584
C	0.2703209858258173 0.5635268047727873 0.1120411536146405	-0.115474
C	0.2354186648282491 0.5964476262180196 0.1122008315709618	-0.113056
C	0.0642889814395904 0.7622744831287293 0.1184380977509606	0.091025
C	0.0985057731066587 0.7285760397567163 0.1138231131305132	-0.160907
C	0.0628595469755645 0.8935815691111522 0.1183205167219964	0.094905
C	0.0955681731499882 0.9288154043938592 0.1135625358088165	-0.157584
C	0.2296789661741860 0.0635267677727878 0.1120411536146405	-0.115474
C	0.2645813191717495 0.0964475762180158 0.1122008315709618	-0.113057
C	0.4357110105604089 0.2622745331287263 0.1184380977509606	0.090963
C	0.4014942028933392 0.2285760067567172 0.1138231131305132	-0.160939
C	0.5628595789755599 0.3935816021111513 0.1183205167219964	0.094906
C	0.5955681971499902 0.4288154043938593 0.1135625358088165	-0.157584
C	0.7296789501741847 0.5635268047727873 0.1120411536146405	-0.115474
C	0.7645813031717481 0.5964476262180196 0.1122008315709618	-0.113057
C	0.9357110425604115 0.7622744831287293 0.1184380977509606	0.091025
C	0.9014942028933395 0.7285760397567163 0.1138231131305132	-0.160907
C	0.9371404210244401 0.1064184148888464 0.6183205007219951	0.094913
C	0.9044318028500098 0.0711846326061403 0.6135624968088165	-0.157569
C	0.7703210498258153 0.9364731952272127 0.6120411536146402	-0.115475
C	0.7354186968282519 0.9035523737819804 0.6122008465709735	-0.113056
C	0.5642889574395885 0.7377255168712707 0.6184380427509596	0.091026
C	0.5985057971066605 0.7714239602432837 0.6138230671305165	-0.160908
C	0.4371404530244355 0.6064184308888478 0.6183205007219951	0.094913
C	0.4044318348500123 0.5711845956061408 0.6135624968088165	-0.157568
C	0.2703209858258173 0.4364732282272119 0.6120411536146402	-0.115475
C	0.2354186648282491 0.4035524397819855 0.6122008465709735	-0.113056
C	0.0642889814395904 0.2377254998712730 0.6184380427509596	0.090963
C	0.0985057731066587 0.2714239932432828 0.6138230671305165	-0.160940
C	0.9371404210244401 0.8935815691111522 0.3816794992780051	0.094905
C	0.9044318028500098 0.9288154043938592 0.3864374411911780	-0.157584
C	0.7703210498258153 0.0635267677727878 0.3879588773853584	-0.115474
C	0.7354186968282519 0.0964475762180158 0.3877991844290324	-0.113057
C	0.5642889574395885 0.2622745331287263 0.3815618942490387	0.090963
C	0.5985057971066605 0.2285760067567172 0.3861769018694843	-0.160939
C	0.4371404530244355 0.3935816021111513 0.3816794992780051	0.094906
C	0.4044318348500123 0.4288154043938593 0.3864374411911780	-0.157584
C	0.2703209858258173 0.5635268047727873 0.3879588773853584	-0.115474
C	0.2354186648282491 0.5964476262180196 0.3877991844290324	-0.113057
C	0.0642889814395904 0.7622744831287293 0.3815618942490387	0.091025
C	0.0985057731066587 0.7285760397567163 0.3861769018694843	-0.160908
C	0.0628595469755645 0.1064184148888464 0.8816794682780059	0.094903
C	0.0955681731499882 0.0711846326061403 0.8864374091911829	-0.157575
C	0.2296789661741860 0.9364731952272127 0.8879588153853608	-0.115474
C	0.2645813191717495 0.9035523737819804 0.8877991844290255	-0.113057
C	0.4357110105604089 0.7377255168712707 0.8815618632490397	0.091026
C	0.4014942028933392 0.7714239602432837 0.8861769018694845	-0.160908
C	0.5628595789755599 0.6064184308888478 0.8816794682780059	0.094903
C	0.5955681971499902 0.5711845956061408 0.8864374091911829	-0.157575
C	0.7296789501741847 0.4364732282272119 0.8879588153853608	-0.115475
C	0.7645813031717481 0.4035524397819855 0.8877991844290255	-0.113056
C	0.9357110425604115 0.2377254998712730 0.8815618632490397	0.090963
C	0.9014942028933395 0.2714239932432828 0.8861769018694845	-0.160940
C	0.6515963684192486 0.8233220969370543 0.7500000160000013	-0.103095
C	0.8871811320119106 0.0527614522108453 0.7500000160000013	0.166117
C	0.8233944779945552 0.9875103438133135 0.7500000160000013	-0.094043
C	0.6165915485203449 0.7891728982258982 0.7500000160000013	0.170207
C	0.7882704289028769 0.9535147935622528 0.7500000160000013	0.131976
C	0.7173514189384244 0.8864933235550684 0.7500000160000013	0.138344
C	0.6819991866101346 0.8527222028383195 0.7500000160000013	-0.093072
C	0.8533149475234810 0.0174353264550239 0.7500000160000013	-0.105778
C	0.1515963524192472 0.3233220969370540 0.7500000160000013	-0.103096
C	0.3871810360119100 0.5527614642108460 0.7500000160000013	0.166117
C	0.3233944779945553 0.4875103438133132 0.7500000160000013	-0.094043
C	0.1165915405203445 0.2891728982258982 0.7500000160000013	0.170216
C	0.2882703969028816 0.4535147935622527 0.7500000160000013	0.131976
C	0.2173514029384231 0.3864933565550674 0.7500000160000013	0.138345
C	0.1819991536101351 0.3527221698383204 0.7500000160000013	-0.093071
C	0.3533149155234783 0.5174353214550200 0.7500000160000013	-0.105778
C	0.3484036635807540 0.1766779030629459 0.2500000000000000	-0.103096
C	0.1128189399880953 0.9472385357891540 0.2500000000000000	0.166153
C	0.1766055220054445 0.0124896521866863 0.2500000000000000	-0.094040
C	0.3834084514796547 0.2108270857741005 0.2500000000000000	0.170215
C	0.2117295870971243 0.0464851984377466 0.2500000000000000	0.131975
C	0.2826485810615755 0.1135066354449320 0.2500000000000000	0.138345
C	0.3180008463898647 0.1472777971616804 0.2500000000000000	-0.093071
C	0.1466850844765216 0.9825646455449808 0.2500000000000000	-0.105785
C	0.8484036315807514 0.6766779030629457 0.2500000000000000	-0.103095
C	0.6128188679880894 0.4472385687891529 0.2500000000000000	0.166153
C	0.6766055220054448 0.5124896561866865 0.2500000000000000	-0.094040
C	0.8834084514796551 0.7108271017741018 0.2500000000000000	0.170207
C	0.7117295710971231 0.5464852394377464 0.2500000000000000	0.131975
C	0.7826485810615756 0.6135066764449316 0.2500000000000000	0.138345
C	0.8180008133898654 0.6472777971616805 0.2500000000000000	-0.093072
C	0.6466850524765190 0.4825646455449810 0.2500000000000000	-0.105785
C	0.3484036635807540 0.8233220969370543 0.7500000160000013	-0.103096
C	0.1128189399880953 0.0527614522108453 0.7500000160000013	0.166117
C	0.1766055220054445 0.9875103438133135 0.7500000160000013	-0.094043
C	0.3834084514796547 0.7891728982258982 0.7500000160000013	0.170207
C	0.2117295870971243 0.9535147935622528 0.7500000160000013	0.131975
C	0.2826485810615755 0.8864933235550684 0.7500000160000013	0.138344
C	0.3180008463898647 0.8527222028383195 0.7500000160000013	-0.093071
C	0.1466850844765216 0.0174353264550239 0.7500000160000013	-0.105778
C	0.8484036315807514 0.3233220969370540 0.7500000160000013	-0.103096
C	0.6128188679880894 0.5527614642108460 0.7500000160000013	0.166117
C	0.6766055220054448 0.4875103438133132 0.7500000160000013	-0.094043
C	0.8834084514796551 0.2891728982258982 0.7500000160000013	0.170215
C	0.7117295710971231 0.4535147935622527 0.7500000160000013	0.131976
C	0.7826485810615756 0.3864933565550674 0.7500000160000013	0.138345
C	0.8180008133898654 0.3527221698383204 0.7500000160000013	-0.093071
C	0.6466850524765190 0.5174353214550200 0.7500000160000013	-0.105778
C	0.6515963684192486 0.1766779030629459 0.2500000000000000	-0.103095
C	0.8871811320119106 0.9472385357891540 0.2500000000000000	0.166153
C	0.8233944779945552 0.0124896521866863 0.2500000000000000	-0.094040
C	0.6165915485203449 0.2108270857741005 0.2500000000000000	0.170215
C	0.7882704289028769 0.0464851984377466 0.2500000000000000	0.131975
C	0.7173514189384244 0.1135066354449320 0.2500000000000000	0.138345
C	0.6819991866101346 0.1472777971616804 0.2500000000000000	-0.093072
C	0.8533149475234810 0.9825646455449808 0.2500000000000000	-0.105785
C	0.1515963524192472 0.6766779030629457 0.2500000000000000	-0.103095
C	0.3871810360119100 0.4472385687891529 0.2500000000000000	0.166153
C	0.3233944779945553 0.5124896561866865 0.2500000000000000	-0.094040
C	0.1165915405203445 0.7108271017741018 0.2500000000000000	0.170207
C	0.2882703969028816 0.5464852394377464 0.2500000000000000	0.131975
C	0.2173514029384231 0.6135066764449316 0.2500000000000000	0.138345
C	0.1819991536101351 0.6472777971616805 0.2500000000000000	-0.093071
C	0.3533149155234783 0.4825646455449810 0.2500000000000000	-0.105786
H	0.9510551076631723 0.1213451847176867 0.9850786276594738	0.100353
H	0.8925155672423051 0.0582377200486291 0.9954910354065686	0.128237
H	0.7842617586859444 0.9494092027614267 0.9945603523447724	0.106615
H	0.7216261363796638 0.8904797940201039 0.9943060131112799	0.115641
H	0.5498873410621932 0.7234143485254380 0.9850760494001426	0.099917
H	0.6110136127430539 0.7836777474022408 0.9952011689749758	0.133123
H	0.4510552036631731 0.6213452007176881 0.9850786276594738	0.100353
H	0.3925155032423072 0.5582377490486351 0.9954910354065686	0.128237
H	0.2842617586859440 0.4494092027614267 0.9945603523447724	0.106615
H	0.2216261523796653 0.3904798930201088 0.9943060131112799	0.115641
H	0.0498873490621935 0.2234143975254385 0.9850760494001426	0.099956
H	0.1110136287430480 0.2836776814022422 0.9952011689749758	0.133125
H	0.0489448323368229 0.8786547992823119 0.4850786566594727	0.100353
H	0.1074844807576915 0.9417622509513649 0.4954910704065675	0.128238
H	0.2157382733140586 0.0505908142385783 0.4945603843447750	0.106615
H	0.2783738636203361 0.1095201319798968 0.4943060091112796	0.115641
H	0.4501126589378071 0.2765855854745636 0.4850760494001427	0.099956
H	0.3889863872569461 0.2163222695977573 0.4952011999749748	0.133125
H	0.5489448923368277 0.3786547992823119 0.4850786566594727	0.100353
H	0.6074844327576949 0.4417622839513712 0.4954910704065675	0.128238
H	0.7157382413140556 0.5505907972385733 0.4945603843447750	0.106615
H	0.7783738636203362 0.6095202059798961 0.4943060091112796	0.115641
H	0.9501126589378068 0.7765856514745620 0.4850760494001427	0.099917
H	0.8889863872569461 0.7163222525977592 0.4952011999749748	0.133122
H	0.0489448323368229 0.1213451847176867 0.5149213743405263	0.100352
H	0.1074844807576915 0.0582377200486291 0.5045089295934250	0.128244
H	0.2157382733140586 0.9494092027614267 0.5054396476552276	0.106615
H	0.2783738636203361 0.8904797940201039 0.5056939908887205	0.115641
H	0.4501126589378071 0.7234143485254380 0.5149239825998601	0.099917
H	0.3889863872569461 0.7836777474022408 0.5047988310250242	0.133123
H	0.5489448923368277 0.6213452007176881 0.5149213743405263	0.100352
H	0.6074844327576949 0.5582377490486351 0.5045089295934250	0.128244
H	0.7157382413140556 0.4494092027614267 0.5054396476552276	0.106615
H	0.7783738636203362 0.3904798930201088 0.5056939908887205	0.115641
H	0.9501126589378068 0.2234143975254385 0.5149239825998601	0.099956
H	0.8889863872569461 0.2836776814022422 0.5047988310250242	0.133125
H	0.9510551076631723 0.8786547992823119 0.0149213743405262	0.100353
H	0.8925155672423051 0.9417622509513649 0.0045088985934263	0.128238
H	0.7842617586859444 0.0505908142385783 0.0054396476552276	0.106615
H	0.7216261363796638 0.1095201319798968 0.0056939598887143	0.115641
H	0.5498873410621932 0.2765855854745636 0.0149239505998573	0.099956
H	0.6110136127430539 0.2163222695977573 0.0047988310250242	0.133125
H	0.4510552036631731 0.3786547992823119 0.0149213743405262	0.100353
H	0.3925155032423072 0.4417622839513712 0.0045088985934263	0.128238
H	0.2842617586859440 0.5505907972385733 0.0054396476552276	0.106615
H	0.2216261523796653 0.6095202059798961 0.0056939598887143	0.115641
H	0.0498873490621935 0.7765856514745620 0.0149239505998573	0.099917
H	0.1110136287430480 0.7163222525977592 0.0047988310250242	0.133122
H	0.0489448323368229 0.8786547992823119 0.0149213743405262	0.100353
H	0.1074844807576915 0.9417622509513649 0.0045088985934263	0.128238
H	0.2157382733140586 0.0505908142385783 0.0054396476552276	0.106615
H	0.2783738636203361 0.1095201319798968 0.0056939598887143	0.115645
H	0.4501126589378071 0.2765855854745636 0.0149239505998573	0.099956
H	0.3889863872569461 0.2163222695977573 0.0047988310250242	0.133127
H	0.5489448923368277 0.3786547992823119 0.0149213743405262	0.100353
H	0.6074844327576949 0.4417622839513712 0.0045088985934263	0.128238
H	0.7157382413140556 0.5505907972385733 0.0054396476552276	0.106615
H	0.7783738636203362 0.6095202059798961 0.0056939598887143	0.115645
H	0.9501126589378068 0.7765856514745620 0.0149239505998573	0.099917
H	0.8889863872569461 0.7163222525977592 0.0047988310250242	0.133124
H	0.9510551076631723 0.1213451847176867 0.5149213743405263	0.100352
H	0.8925155672423051 0.0582377200486291 0.5045089295934250	0.128244
H	0.7842617586859444 0.9494092027614267 0.5054396476552276	0.106615
H	0.7216261363796638 0.8904797940201039 0.5056939908887205	0.115645
H	0.5498873410621932 0.7234143485254380 0.5149239825998601	0.099917
H	0.6110136127430539 0.7836777474022408 0.5047988310250242	0.133124
H	0.4510552036631731 0.6213452007176881 0.5149213743405263	0.100352
H	0.3925155032423072 0.5582377490486351 0.5045089295934250	0.128244
H	0.2842617586859440 0.4494092027614267 0.5054396476552276	0.106615
H	0.2216261523796653 0.3904798930201088 0.5056939908887205	0.115645
H	0.0498873490621935 0.2234143975254385 0.5149239825998601	0.099956
H	0.1110136287430480 0.2836776814022422 0.5047988310250242	0.133127
H	0.9510551076631723 0.8786547992823119 0.4850786566594727	0.100353
H	0.8925155672423051 0.9417622509513649 0.4954910704065675	0.128238
H	0.7842617586859444 0.0505908142385783 0.4945603843447750	0.106615
H	0.7216261363796638 0.1095201319798968 0.4943060091112796	0.115644
H	0.5498873410621932 0.2765855854745636 0.4850760494001427	0.099956
H	0.6110136127430539 0.2163222695977573 0.4952011999749748	0.133127
H	0.4510552036631731 0.3786547992823119 0.4850786566594727	0.100353
H	0.3925155032423072 0.4417622839513712 0.4954910704065675	0.128238
H	0.2842617586859440 0.5505907972385733 0.4945603843447750	0.106615
H	0.2216261523796653 0.6095202059798961 0.4943060091112796	0.115644
H	0.0498873490621935 0.7765856514745620 0.4850760494001427	0.099917
H	0.1110136287430480 0.7163222525977592 0.4952011999749748	0.133124
H	0.0489448323368229 0.1213451847176867 0.9850786276594738	0.100353
H	0.1074844807576915 0.0582377200486291 0.9954910354065686	0.128237
H	0.2157382733140586 0.9494092027614267 0.9945603523447724	0.106615
H	0.2783738636203361 0.8904797940201039 0.9943060131112799	0.115644
H	0.4501126589378071 0.7234143485254380 0.9850760494001426	0.099917
H	0.3889863872569461 0.7836777474022408 0.9952011689749758	0.133124
H	0.5489448923368277 0.6213452007176881 0.9850786276594738	0.100353
H	0.6074844327576949 0.5582377490486351 0.9954910354065686	0.128237
H	0.7157382413140556 0.4494092027614267 0.9945603523447724	0.106615
H	0.7783738636203362 0.3904798930201088 0.9943060131112799	0.115644
H	0.9501126589378068 0.2234143975254385 0.9850760494001426	0.099956
H	0.8889863872569461 0.2836776814022422 0.9952011689749758	0.133127
Ni	0.5000000000000000 0.6726932613171138 0.7500000160000013	0.453097
Ni	0.0000000000000000 0.1726932783171115 0.7500000160000013	0.453047
Ni	0.5000000000000000 0.3273067386828863 0.2500000000000000	0.453046
Ni	0.0000000000000000 0.8273067386828862 0.2500000000000000	0.453097
Zr	0.5000000000000000 0.6729981575929277 0.2500000000000000	2.447927
Zr	0.0000000000000000 0.1729981575929272 0.2500000000000000	2.447926
Zr	0.5000000000000000 0.3270018744070754 0.7500000160000013	2.447926
Zr	0.0000000000000000 0.8270018424070723 0.7500000160000013	2.447927
F	0.5000000000000000 0.7448293180655940 0.2500000000000000	-0.687430
F	0.5000000000000000 0.6010725996953503 0.2500000000000000	-0.685277
F	0.0000000000000000 0.2448292690655938 0.2500000000000000	-0.687429
F	0.0000000000000000 0.1010725836953490 0.2500000000000000	-0.685277
F	0.5000000000000000 0.2551707309344063 0.7500000160000013	-0.687429
F	0.5000000000000000 0.3989273673046504 0.7500000160000013	-0.685277
F	0.0000000000000000 0.7551706819344060 0.7500000160000013	-0.687430
F	0.0000000000000000 0.8989274003046497 0.7500000160000013	-0.685277
F	0.5696410108507542 0.6730845077566009 0.2500000000000000	-0.687609
F	0.0696410308507558 0.1730845407565999 0.2500000000000000	-0.687607
F	0.4303589571492432 0.3269154262434010 0.7500000160000013	-0.687607
F	0.9303589891492458 0.8269154922433991 0.7500000160000013	-0.687608
F	0.4303589571492432 0.6730845077566009 0.2500000000000000	-0.687609
F	0.9303589891492458 0.1730845407565999 0.2500000000000000	-0.687607
F	0.5696410108507542 0.3269154262434010 0.7500000160000013	-0.687607
F	0.0696410308507558 0.8269154922433991 0.7500000160000013	-0.687608
F	0.5000000000000000 0.6728443922539227 0.4828402419371016	-0.622573
F	0.0000000000000000 0.1728444092539204 0.4828402419371016	-0.622578
F	0.5000000000000000 0.3271556407460766 0.9828402419371015	-0.622578
F	0.0000000000000000 0.8271556077460773 0.9828402419371015	-0.622573
F	0.5000000000000000 0.6728443922539227 0.0171597540628982	-0.622573
F	0.0000000000000000 0.1728444092539204 0.0171597540628982	-0.622578
F	0.5000000000000000 0.3271556407460766 0.5171597260629029	-0.622578
F	0.0000000000000000 0.8271556077460773 0.5171597260629029	-0.622573
N	0.5472813252225478 0.7209246254755312 0.7500000160000013	-0.154852
N	0.9533555528156227 0.1239303358395785 0.7500000160000013	-0.155405
N	0.0472812892225447 0.2209246094755302 0.7500000160000013	-0.154732
N	0.4533555528156227 0.6239303198395771 0.7500000160000013	-0.155410
N	0.4527187387774506 0.2790753745244686 0.2500000000000000	-0.154732
N	0.0466444551843781 0.8760696801604229 0.2500000000000000	-0.155408
N	0.9527186747774522 0.7790753745244688 0.2500000000000000	-0.154852
N	0.5466444471843773 0.3760696801604228 0.2500000000000000	-0.155403
N	0.4527187387774506 0.7209246254755312 0.7500000160000013	-0.154852
N	0.0466444551843781 0.1239303358395785 0.7500000160000013	-0.155405
N	0.9527186747774522 0.2209246094755302 0.7500000160000013	-0.154732
N	0.5466444471843773 0.6239303198395771 0.7500000160000013	-0.155410
N	0.5472813252225478 0.2790753745244686 0.2500000000000000	-0.154731
N	0.9533555528156227 0.8760696801604229 0.2500000000000000	-0.155408
N	0.0472812892225447 0.7790753745244688 0.2500000000000000	-0.154851
N	0.4533555528156227 0.3760696801604228 0.2500000000000000	-0.155403
	  	
