#======================================================================

# CRYSTAL DATA

#----------------------------------------------------------------------

data_VESTA_phase_1


_pd_phase_name                         ZrFSIX_6_Ni_i
_cell_length_a                         17.69310
_cell_length_b                         17.69310
_cell_length_c                         16.02768
_cell_angle_alpha                      90
_cell_angle_beta                       90
_cell_angle_gamma                      90
_symmetry_space_group_name_H-M         P 1
_symmetry_Int_Tables_number            1

loop_
_symmetry_equiv_pos_as_xyz
   x, y, z

loop_
   _atom_site_label
   _atom_site_fract_x
   _atom_site_fract_y
   _atom_site_fract_z
   _atom_site_charge
N	0.2439260899592235 0.1322210452251595 0.1280271528810843	-0.243277
N	0.2560739100407764 0.3677789687748417 0.1280271528810843	-0.243276
N	0.3677789687748417 0.2439260899592235 0.1280271528810843	-0.243276
N	0.1322210452251595 0.2560739100407764 0.1280271528810843	-0.243277
N	0.7560738830407778 0.6322210582251643 0.3719728321189180	-0.243250
N	0.7439261169592222 0.8677789417748357 0.3719728321189180	-0.243276
N	0.6322210582251643 0.7439261169592222 0.3719728321189180	-0.243250
N	0.8677789417748357 0.7560738830407777 0.3719728321189180	-0.243276
N	0.7560738830407777 0.8677789417748357 0.8719728321189181	-0.243276
N	0.7439261169592223 0.6322210582251643 0.8719728321189181	-0.243251
N	0.6322210582251643 0.7560738830407777 0.8719728321189181	-0.243250
N	0.8677789417748357 0.7439261169592222 0.8719728321189181	-0.243277
N	0.2439260899592235 0.3677789687748417 0.6280271678810819	-0.243277
N	0.2560739100407764 0.1322210452251595 0.6280271678810819	-0.243278
N	0.3677789687748417 0.2560739100407764 0.6280271678810819	-0.243278
N	0.1322210452251595 0.2439260899592235 0.6280271678810819	-0.243277
C	0.2010515777716052 0.0956988827215163 0.1845334762467289	0.101693
C	0.1929843426691027 0.0176105143466213 0.1842996164193521	-0.175887
C	0.2322331801776105 0.9744207077725729 0.1251099043707840	0.112288
C	0.2777655442950543 0.0130732767581684 0.0676278090916098	-0.175028
C	0.2813717580171576 0.0914660596822068 0.0703754313140658	0.103644
C	0.2262868414015160 0.8914191532220384 0.1238748553158235	0.060953
C	0.2909578630621991 0.8474088548381263 0.1209568772193344	-0.172987
C	0.2865232215607660 0.7676551480739883 0.1220905060457667	0.084467
C	0.1479120276830959 0.7785469775157852 0.1246456642834599	-0.123510
C	0.1541387919232888 0.8560333072596639 0.1268620691846775	-0.135428
C	0.2989483822283985 0.4043011302784814 0.1845334762467289	0.101692
C	0.3070156173308939 0.4823894666533807 0.1842996164193521	-0.175886
C	0.2677668198223896 0.5255792922274271 0.1251099043707840	0.112289
C	0.2222344687049431 0.4869267202418278 0.0676278090916098	-0.175028
C	0.2186282559828434 0.4085339473177972 0.0703754313140658	0.103642
C	0.2737131585984840 0.6085808467779616 0.1238748553158235	0.060953
C	0.2090421779378007 0.6525911451618737 0.1209568772193344	-0.172985
C	0.2134767514392354 0.7323448519260117 0.1220905060457667	0.084480
C	0.3520879583169030 0.7214530224842148 0.1246456642834599	-0.123502
C	0.3458612080767111 0.6439666927403361 0.1268620691846775	-0.135428
C	0.4043011302784814 0.2010515777716052 0.1845334762467289	0.101692
C	0.4823894666533807 0.1929843426691027 0.1842996164193521	-0.175887
C	0.5255792922274271 0.2322331801776105 0.1251099043707840	0.112288
C	0.4869267202418278 0.2777655442950543 0.0676278090916098	-0.175026
C	0.4085339473177972 0.2813717580171576 0.0703754313140658	0.103642
C	0.6085808467779616 0.2262868414015160 0.1238748553158235	0.060953
C	0.6525911451618737 0.2909578630621991 0.1209568772193344	-0.172985
C	0.7323448519260117 0.2865232215607660 0.1220905060457667	0.084467
C	0.7214530224842148 0.1479120276830959 0.1246456642834599	-0.123510
C	0.6439666927403361 0.1541387919232888 0.1268620691846775	-0.135427
C	0.0956988827215163 0.2989483822283985 0.1845334762467289	0.101691
C	0.0176105143466213 0.3070156173308939 0.1842996164193521	-0.175886
C	0.9744207077725729 0.2677668198223896 0.1251099043707840	0.112289
C	0.0130732767581684 0.2222344687049431 0.0676278090916098	-0.175029
C	0.0914660596822068 0.2186282559828434 0.0703754313140658	0.103643
C	0.8914191532220384 0.2737131585984841 0.1238748553158235	0.060953
C	0.8474088548381263 0.2090421779378007 0.1209568772193344	-0.172987
C	0.7676551480739883 0.2134767514392354 0.1220905060457667	0.084480
C	0.7785469775157852 0.3520879583169030 0.1246456642834599	-0.123502
C	0.8560333072596639 0.3458612080767111 0.1268620691846775	-0.135429
C	0.7989484352283921 0.5956988697215191 0.3154665397532724	0.101584
C	0.8070156703308946 0.5176104793466145 0.3157003525806489	-0.175849
C	0.7677668198223967 0.4744207077725731 0.3748900636292135	0.112326
C	0.7222344287049469 0.5130733337581694 0.4323721949083906	-0.175035
C	0.7186282159828399 0.5914661066822071 0.4296246086859303	0.103640
C	0.7737132385984836 0.3914192062220393 0.3761251366841760	0.060950
C	0.7090421639377997 0.3474088018381328 0.3790431147806648	-0.172984
C	0.7134767784392341 0.2676550680739887 0.3779094939542332	0.084468
C	0.8520879853169090 0.2785469505157869 0.3753543197165389	-0.123509
C	0.8458611550767106 0.3560332812596620 0.3731379628153251	-0.135427
C	0.7010515647716079 0.9043011302784809 0.3154665397532724	0.101691
C	0.6929843296691054 0.9823894666533810 0.3157003525806489	-0.175887
C	0.7322331801776033 0.0255792982274274 0.3748900636292135	0.112289
C	0.7777655712950531 0.9869267202418279 0.4323721949083906	-0.175027
C	0.7813717840171601 0.9085340003177982 0.4296246086859303	0.103643
C	0.7262867614015164 0.1085808207779593 0.3761251366841760	0.060953
C	0.7909578360622003 0.1525911851618626 0.3790431147806648	-0.172986
C	0.7865232215607659 0.2323449049260126 0.3779094939542332	0.084481
C	0.6479120146830910 0.2214530364842158 0.3753543197165389	-0.123501
C	0.6541388449232894 0.1439666927403359 0.3731379628153251	-0.135427
C	0.5956988697215191 0.7010515647716079 0.3154665397532724	0.101583
C	0.5176104793466145 0.6929843296691054 0.3157003525806489	-0.175850
C	0.4744207077725731 0.7322331801776033 0.3748900636292135	0.112328
C	0.5130733337581694 0.7777655712950531 0.4323721949083906	-0.175033
C	0.5914661066822071 0.7813717840171601 0.4296246086859303	0.103638
C	0.3914192062220393 0.7262867614015164 0.3761251366841760	0.060950
C	0.3474088018381328 0.7909578360622003 0.3790431147806648	-0.172985
C	0.2676550680739887 0.7865232215607659 0.3779094939542332	0.084468
C	0.2785469505157869 0.6479120146830910 0.3753543197165389	-0.123509
C	0.3560332812596620 0.6541388449232894 0.3731379628153251	-0.135427
C	0.9043011302784809 0.7989484352283921 0.3154665397532724	0.101691
C	0.9823894666533810 0.8070156703308946 0.3157003525806489	-0.175885
C	0.0255792982274274 0.7677668198223967 0.3748900636292135	0.112288
C	0.9869267202418279 0.7222344287049469 0.4323721949083906	-0.175028
C	0.9085340003177982 0.7186282159828399 0.4296246086859303	0.103643
C	0.1085808207779593 0.7737132385984836 0.3761251366841760	0.060954
C	0.1525911851618626 0.7090421639377997 0.3790431147806648	-0.172985
C	0.2323449049260126 0.7134767784392341 0.3779094939542332	0.084481
C	0.2214530364842158 0.8520879853169090 0.3753543197165389	-0.123501
C	0.1439666927403359 0.8458611550767106 0.3731379628153251	-0.135428
C	0.7989484352283921 0.9043011302784809 0.8154665077532698	0.101692
C	0.8070156703308946 0.9823894666533810 0.8157004155806507	-0.175886
C	0.7677668198223967 0.0255792982274274 0.8748901276292116	0.112289
C	0.7222344287049469 0.9869267202418279 0.9323721639083915	-0.175028
C	0.7186282159828399 0.9085340003177982 0.9296245766859277	0.103642
C	0.7737132385984836 0.1085808207779593 0.8761251366841759	0.060949
C	0.7090421639377997 0.1525911851618626 0.8790431467806676	-0.172979
C	0.7134767784392341 0.2323449049260126 0.8779095259542287	0.084476
C	0.8520879853169090 0.2214530364842158 0.8753543827165404	-0.123521
C	0.8458611550767106 0.1439666927403359 0.8731379948153207	-0.135425
C	0.7010515647716079 0.5956988697215191 0.8154665077532698	0.101583
C	0.6929843296691054 0.5176104793466145 0.8157004155806507	-0.175849
C	0.7322331801776033 0.4744207077725731 0.8748901276292116	0.112326
C	0.7777655712950531 0.5130733337581694 0.9323721639083915	-0.175033
C	0.7813717840171601 0.5914661066822071 0.9296245766859277	0.103640
C	0.7262867614015164 0.3914192062220393 0.8761251366841759	0.060947
C	0.7909578360622003 0.3474088018381328 0.8790431467806676	-0.172980
C	0.7865232215607659 0.2676550680739887 0.8779095259542287	0.084489
C	0.6479120146830910 0.2785469505157869 0.8753543827165404	-0.123511
C	0.6541388449232894 0.3560332812596620 0.8731379948153207	-0.135427
C	0.5956988697215191 0.7989484352283921 0.8154665077532698	0.101582
C	0.5176104793466145 0.8070156703308946 0.8157004155806507	-0.175848
C	0.4744207077725731 0.7677668198223967 0.8748901276292116	0.112327
C	0.5130733337581694 0.7222344287049469 0.9323721639083915	-0.175035
C	0.5914661066822071 0.7186282159828399 0.9296245766859277	0.103639
C	0.3914192062220393 0.7737132385984836 0.8761251366841759	0.060946
C	0.3474088018381328 0.7090421639377997 0.8790431467806676	-0.172980
C	0.2676550680739887 0.7134767784392341 0.8779095259542287	0.084476
C	0.2785469505157869 0.8520879853169090 0.8753543827165404	-0.123521
C	0.3560332812596620 0.8458611550767106 0.8731379948153207	-0.135426
C	0.9043011302784809 0.7010515647716079 0.8154665077532698	0.101692
C	0.9823894666533810 0.6929843296691054 0.8157004155806507	-0.175886
C	0.0255792982274274 0.7322331801776033 0.8748901276292116	0.112287
C	0.9869267202418279 0.7777655712950531 0.9323721639083915	-0.175026
C	0.9085340003177982 0.7813717840171601 0.9296245766859277	0.103642
C	0.1085808207779593 0.7262867614015164 0.8761251366841759	0.060950
C	0.1525911851618626 0.7909578360622003 0.8790431467806676	-0.172980
C	0.2323449049260126 0.7865232215607659 0.8779095259542287	0.084489
C	0.2214530364842158 0.6479120146830910 0.8753543827165404	-0.123511
C	0.1439666927403359 0.6541388449232894 0.8731379948153207	-0.135427
C	0.2010515777716052 0.4043011302784814 0.6845334922467302	0.101691
C	0.1929843426691027 0.4823894666533807 0.6842995844193493	-0.175887
C	0.2322331801776105 0.5255792922274271 0.6251098723707884	0.112289
C	0.2777655442950543 0.4869267202418278 0.5676278360916085	-0.175027
C	0.2813717580171576 0.4085339473177972 0.5703754233140723	0.103643
C	0.2262868414015160 0.6085808467779616 0.6238748633158241	0.060950
C	0.2909578630621991 0.6525911451618737 0.6209568532193324	-0.172980
C	0.2865232215607660 0.7323448519260117 0.6220904740457713	0.084477
C	0.1479120276830959 0.7214530224842148 0.6246456172834596	-0.123520
C	0.1541387919232888 0.6439666927403361 0.6268620051846793	-0.135424
C	0.2989483822283985 0.0956988827215163 0.6845334922467302	0.101693
C	0.3070156173308939 0.0176105143466213 0.6842995844193493	-0.175886
C	0.2677668198223896 0.9744207077725729 0.6251098723707884	0.112287
C	0.2222344687049431 0.0130732767581684 0.5676278360916085	-0.175028
C	0.2186282559828434 0.0914660596822068 0.5703754233140723	0.103644
C	0.2737131585984840 0.8914191532220384 0.6238748633158241	0.060950
C	0.2090421779378007 0.8474088548381263 0.6209568532193324	-0.172980
C	0.2134767514392354 0.7676551480739883 0.6220904740457713	0.084490
C	0.3520879583169030 0.7785469775157852 0.6246456172834596	-0.123510
C	0.3458612080767111 0.8560333072596639 0.6268620051846793	-0.135427
C	0.4043011302784814 0.2989483822283985 0.6845334922467302	0.101691
C	0.4823894666533807 0.3070156173308939 0.6842995844193493	-0.175885
C	0.5255792922274271 0.2677668198223896 0.6251098723707884	0.112287
C	0.4869267202418278 0.2222344687049431 0.5676278360916085	-0.175028
C	0.4085339473177972 0.2186282559828434 0.5703754233140723	0.103643
C	0.6085808467779616 0.2737131585984840 0.6238748633158241	0.060951
C	0.6525911451618737 0.2090421779378007 0.6209568532193324	-0.172980
C	0.7323448519260117 0.2134767514392354 0.6220904740457713	0.084477
C	0.7214530224842148 0.3520879583169030 0.6246456172834596	-0.123519
C	0.6439666927403361 0.3458612080767111 0.6268620051846793	-0.135425
C	0.0956988827215163 0.2010515777716052 0.6845334922467302	0.101693
C	0.0176105143466213 0.1929843426691027 0.6842995844193493	-0.175887
C	0.9744207077725729 0.2322331801776105 0.6251098723707884	0.112289
C	0.0130732767581684 0.2777655442950543 0.5676278360916085	-0.175027
C	0.0914660596822068 0.2813717580171576 0.5703754233140723	0.103643
C	0.8914191532220384 0.2262868414015160 0.6238748633158241	0.060950
C	0.8474088548381263 0.2909578630621991 0.6209568532193324	-0.172981
C	0.7676551480739883 0.2865232215607660 0.6220904740457713	0.084489
C	0.7785469775157852 0.1479120276830959 0.6246456172834596	-0.123510
C	0.8560333072596639 0.1541387919232888 0.6268620051846793	-0.135428
H	0.1732545996626105 0.1304498117690688 0.2317037852542633	0.096486
H	0.1579900539270618 0.9903114217943453 0.2314563039633812	0.115759
H	0.3086369648363584 0.9821988989610531 0.0196560127970530	0.116242
H	0.3142954138902228 0.1231545376603194 0.0246325749929059	0.095669
H	0.3465309654175043 0.8742856059622290 0.1202831501716274	0.109055
H	0.0924107153661027 0.7515086413839681 0.1252533721167718	0.110052
H	0.1035248546534927 0.8912403960349218 0.1289712237291812	0.100719
H	0.3267453733373907 0.3695502152309372 0.2317037852542633	0.096485
H	0.3420099860729344 0.5096885782056547 0.2314563039633812	0.115759
H	0.1913630481636391 0.5178011010389469 0.0196560127970530	0.116243
H	0.1857045861097772 0.3768454623396807 0.0246325749929059	0.095668
H	0.1534690485824969 0.6257143940377710 0.1202831501716274	0.109054
H	0.4075892776338932 0.7484913586160319 0.1252533721167718	0.110052
H	0.3964751583465119 0.6087596039650782 0.1289712237291812	0.100719
H	0.3695502152309372 0.1732545996626105 0.2317037852542633	0.096485
H	0.5096885782056547 0.1579900539270618 0.2314563039633812	0.115760
H	0.5178011010389469 0.3086369648363584 0.0196560127970530	0.116243
H	0.3768454623396807 0.3142954138902228 0.0246325749929059	0.095668
H	0.6257143940377710 0.3465309654175043 0.1202831501716274	0.109056
H	0.7484913586160319 0.0924107153661027 0.1252533721167718	0.110052
H	0.6087596039650782 0.1035248546534927 0.1289712237291812	0.100720
H	0.1304498117690688 0.3267453733373907 0.2317037852542633	0.096487
H	0.9903114217943453 0.3420099860729344 0.2314563039633812	0.115758
H	0.9821988989610531 0.1913630481636391 0.0196560127970530	0.116243
H	0.1231545376603194 0.1857045861097772 0.0246325749929059	0.095669
H	0.8742856059622290 0.1534690485824969 0.1202831501716274	0.109055
H	0.7515086413839681 0.4075892776338932 0.1252533721167718	0.110052
H	0.8912403960349218 0.3964751583465119 0.1289712237291812	0.100720
H	0.8267453733373908 0.6304498387690676 0.2682962307457379	0.096501
H	0.8420099050729379 0.4903114757943425 0.2685436960366188	0.115764
H	0.6913630351636416 0.4821988989610528 0.4803439892029471	0.116243
H	0.6857046391097781 0.6231545646603182 0.4753674230070939	0.095669
H	0.6534690345824955 0.3742855519622315 0.3797168578283733	0.109054
H	0.9075892246338924 0.2515086683839671 0.3747466198832275	0.110052
H	0.8964751313465134 0.3912404220349168 0.3710287842708193	0.100720
H	0.6732546266626092 0.8695501612309324 0.2682962307457379	0.096486
H	0.6579900949270621 0.0096885402056516 0.2685436960366188	0.115760
H	0.8086369648363584 0.0178011000389435 0.4803439892029471	0.116242
H	0.8142953608902219 0.8768454353396818 0.4753674230070939	0.095668
H	0.8465309654175045 0.1257144610377729 0.3797168578283733	0.109056
H	0.5924107223661068 0.2484913046160273 0.3747466198832275	0.110050
H	0.6035248686534866 0.1087595909650808 0.3710287842708193	0.100718
H	0.6304498387690676 0.6732546266626092 0.2682962307457379	0.096501
H	0.4903114757943425 0.6579900949270621 0.2685436960366188	0.115765
H	0.4821988989610528 0.8086369648363584 0.4803439892029471	0.116243
H	0.6231545646603182 0.8142953608902219 0.4753674230070939	0.095669
H	0.3742855519622315 0.8465309654175045 0.3797168578283733	0.109057
H	0.2515086683839671 0.5924107223661068 0.3747466198832275	0.110051
H	0.3912404220349168 0.6035248686534866 0.3710287842708193	0.100719
H	0.8695501612309324 0.8267453733373908 0.2682962307457379	0.096486
H	0.0096885402056516 0.8420099050729379 0.2685436960366188	0.115759
H	0.0178011000389435 0.6913630351636416 0.4803439892029471	0.116243
H	0.8768454353396818 0.6857046391097781 0.4753674230070939	0.095668
H	0.1257144610377729 0.6534690345824955 0.3797168578283733	0.109056
H	0.2484913046160273 0.9075892246338924 0.3747466198832275	0.110051
H	0.1087595909650808 0.8964751313465134 0.3710287842708193	0.100721
H	0.8267453733373908 0.8695501612309324 0.7682961997457389	0.096486
H	0.8420099050729379 0.0096885402056516 0.7685437110366238	0.115759
H	0.6913630351636416 0.0178011000389435 0.9803440202029461	0.116242
H	0.6857046391097781 0.8768454353396818 0.9753673590070958	0.095668
H	0.6534690345824955 0.1257144610377729 0.8797168258283706	0.109053
H	0.9075892246338924 0.2484913046160273 0.8747465568832259	0.110054
H	0.8964751313465134 0.1087595909650808 0.8710287522708170	0.100720
H	0.6732546266626092 0.6304498387690676 0.7682961997457389	0.096501
H	0.6579900949270621 0.4903114757943425 0.7685437110366238	0.115764
H	0.8086369648363584 0.4821988989610528 0.9803440202029461	0.116242
H	0.8142953608902219 0.6231545646603182 0.9753673590070958	0.095669
H	0.8465309654175045 0.3742855519622315 0.8797168258283706	0.109052
H	0.5924107223661068 0.2515086683839671 0.8747465568832259	0.110051
H	0.6035248686534866 0.3912404220349168 0.8710287522708170	0.100719
H	0.6304498387690676 0.8267453733373908 0.7682961997457389	0.096501
H	0.4903114757943425 0.8420099050729379 0.7685437110366238	0.115763
H	0.4821988989610528 0.6913630351636416 0.9803440202029461	0.116243
H	0.6231545646603182 0.6857046391097781 0.9753673590070958	0.095669
H	0.3742855519622315 0.6534690345824955 0.8797168258283706	0.109053
H	0.2515086683839671 0.9075892246338924 0.8747465568832259	0.110054
H	0.3912404220349168 0.8964751313465134 0.8710287522708170	0.100721
H	0.8695501612309324 0.6732546266626092 0.7682961997457389	0.096486
H	0.0096885402056516 0.6579900949270621 0.7685437110366238	0.115761
H	0.0178011000389435 0.8086369648363584 0.9803440202029461	0.116242
H	0.8768454353396818 0.8142953608902219 0.9753673590070958	0.095668
H	0.1257144610377729 0.8465309654175045 0.8797168258283706	0.109054
H	0.2484913046160273 0.5924107223661068 0.8747465568832259	0.110050
H	0.1087595909650808 0.6035248686534866 0.8710287522708170	0.100721
H	0.1732545996626105 0.3695502152309372 0.7317038002542611	0.096486
H	0.1579900539270618 0.5096885782056547 0.7314562889633762	0.115760
H	0.3086369648363584 0.5178011010389469 0.5196560107970529	0.116242
H	0.3142954138902228 0.3768454623396807 0.5246325769929060	0.095669
H	0.3465309654175043 0.6257143940377710 0.6202831741716294	0.109055
H	0.0924107153661027 0.7484913586160319 0.6252534431167741	0.110051
H	0.1035248546534927 0.6087596039650782 0.6289712477291830	0.100719
H	0.3267453733373907 0.1304498117690688 0.7317038002542611	0.096486
H	0.3420099860729344 0.9903114217943453 0.7314562889633762	0.115759
H	0.1913630481636391 0.9821988989610531 0.5196560107970529	0.116242
H	0.1857045861097772 0.1231545376603194 0.5246325769929060	0.095669
H	0.1534690485824969 0.8742856059622290 0.6202831741716294	0.109052
H	0.4075892776338932 0.7515086413839681 0.6252534431167741	0.110051
H	0.3964751583465119 0.8912403960349218 0.6289712477291830	0.100721
H	0.3695502152309372 0.3267453733373907 0.7317038002542611	0.096486
H	0.5096885782056547 0.3420099860729344 0.7314562889633762	0.115759
H	0.5178011010389469 0.1913630481636391 0.5196560107970529	0.116243
H	0.3768454623396807 0.1857045861097772 0.5246325769929060	0.095668
H	0.6257143940377710 0.1534690485824969 0.6202831741716294	0.109055
H	0.7484913586160319 0.4075892776338932 0.6252534431167741	0.110053
H	0.6087596039650782 0.3964751583465119 0.6289712477291830	0.100722
H	0.1304498117690688 0.1732545996626105 0.7317038002542611	0.096486
H	0.9903114217943453 0.1579900539270618 0.7314562889633762	0.115760
H	0.9821988989610531 0.3086369648363584 0.5196560107970529	0.116242
H	0.1231545376603194 0.3142954138902228 0.5246325769929060	0.095670
H	0.8742856059622290 0.3465309654175043 0.6202831741716294	0.109055
H	0.7515086413839681 0.0924107153661027 0.6252534431167741	0.110050
H	0.8912403960349218 0.1035248546534927 0.6289712477291830	0.100721
F	0.3166861440271891 0.1559932607141656 0.3783469037029850	-0.689305
F	0.1833138829728096 0.3440067392858345 0.3783469037029850	-0.689304
F	0.3440067392858345 0.3166861440271891 0.3783469037029850	-0.689304
F	0.1559932607141656 0.1833138829728096 0.3783469037029850	-0.689305
F	0.6833138559728111 0.6559932067141681 0.1216530962970149	-0.689304
F	0.8166861440271889 0.8440067932858319 0.1216530962970149	-0.689304
F	0.6559932067141681 0.8166861440271889 0.1216530962970149	-0.689303
F	0.8440067932858319 0.6833138559728111 0.1216530962970149	-0.689306
F	0.6833138559728111 0.8440067932858319 0.6216530642970122	-0.689304
F	0.8166861440271889 0.6559932067141681 0.6216530642970122	-0.689305
F	0.6559932067141681 0.6833138559728111 0.6216530642970122	-0.689305
F	0.8440067932858319 0.8166861440271889 0.6216530642970122	-0.689304
F	0.3166861440271891 0.3440067392858345 0.8783469357029878	-0.689304
F	0.1833138829728096 0.1559932607141656 0.8783469357029878	-0.689305
F	0.3440067392858345 0.1833138829728096 0.8783469357029878	-0.689306
F	0.1559932607141656 0.3166861440271891 0.8783469357029878	-0.689303
F	0.2500000000000000 0.2500000000000000 0.2502818059651673	-0.615547
F	0.2500000000000000 0.2500000000000000 0.5062606309557400	-0.616207
F	0.7500000000000000 0.7500000000000000 0.2497182100348340	-0.615545
F	0.7500000000000000 0.7500000000000000 0.9937393760442641	-0.616207
F	0.7500000000000000 0.7500000000000000 0.7497181620348302	-0.615546
F	0.7500000000000000 0.7500000000000000 0.4937394010442624	-0.616207
F	0.2500000000000000 0.2500000000000000 0.7502818379651698	-0.615547
F	0.2500000000000000 0.2500000000000000 0.0062605989557374	-0.616207
Ni	0.2500000000000000 0.2500000000000000 0.1283122267368879	0.771743
Ni	0.7500000000000000 0.7500000000000000 0.3716877892631135	0.771739
Ni	0.7500000000000000 0.7500000000000000 0.8716877582631143	0.771741
Ni	0.2500000000000000 0.2500000000000000 0.6283122417368857	0.771746
Zr	0.2500000000000000 0.2500000000000000 0.3782403247703518	2.493529
Zr	0.7500000000000000 0.7500000000000000 0.1217596832296488	2.493529
Zr	0.7500000000000000 0.7500000000000000 0.6217596442296491	2.493529
Zr	0.2500000000000000 0.2500000000000000 0.8782403557703510	2.493529
	  	
