#======================================================================

# CRYSTAL DATA

#----------------------------------------------------------------------

data_VESTA_phase_1


_pd_phase_name                         ZrFSIX_5_Cu_i
_cell_length_a                         19.74755
_cell_length_b                         19.74755
_cell_length_c                         16.82794
_cell_angle_alpha                      90
_cell_angle_beta                       90
_cell_angle_gamma                      90
_symmetry_space_group_name_H-M         P 1
_symmetry_Int_Tables_number            1

loop_
_symmetry_equiv_pos_as_xyz
   x, y, z

loop_
   _atom_site_label
   _atom_site_fract_x
   _atom_site_fract_y
   _atom_site_fract_z
   _atom_site_charge
F	0.3112858720776298 0.1663750282637731 0.3511478840899256	-0.688487
F	0.1887141159223691 0.3336249717362268 0.3511478840899256	-0.688491
F	0.3336249717362268 0.3112858720776298 0.3511478840899256	-0.688490
F	0.1663750282637731 0.1887141159223691 0.3511478840899256	-0.688488
F	0.6887141519223652 0.6663750522637755 0.1488521159100742	-0.688488
F	0.8112858480776348 0.8336249477362245 0.1488521159100742	-0.688490
F	0.6663750522637755 0.8112858480776348 0.1488521159100742	-0.688489
F	0.8336249477362245 0.6887141519223652 0.1488521159100742	-0.688489
F	0.6887141519223652 0.8336249477362245 0.6488521479100767	-0.688492
F	0.8112858480776348 0.6663750522637755 0.6488521479100767	-0.688487
F	0.6663750522637755 0.6887141519223652 0.6488521479100767	-0.688489
F	0.8336249477362245 0.8112858480776348 0.6488521479100767	-0.688490
F	0.3112858720776298 0.3336249717362268 0.8511478520899233	-0.688490
F	0.1887141159223691 0.1663750282637731 0.8511478520899233	-0.688488
F	0.3336249717362268 0.1887141159223691 0.8511478520899233	-0.688489
F	0.1663750282637731 0.3112858720776298 0.8511478520899233	-0.688490
F	0.2500000000000000 0.2500000000000000 0.4728854219595200	-0.651519
F	0.2500000000000000 0.2500000000000000 0.2294890815670002	-0.651795
F	0.7500000000000000 0.7500000000000000 0.0271146050404786	-0.651519
F	0.7500000000000000 0.7500000000000000 0.2705109024329985	-0.651795
F	0.7500000000000000 0.7500000000000000 0.5271146090404794	-0.651518
F	0.7500000000000000 0.7500000000000000 0.7705109024329986	-0.651796
F	0.2500000000000000 0.2500000000000000 0.9728853909595206	-0.651518
F	0.2500000000000000 0.2500000000000000 0.7294890975670014	-0.651796
N	0.3532240707997315 0.2467540481226191 0.6014814092059262	-0.232851
N	0.1467759292002686 0.2532459518773809 0.6014814092059262	-0.232850
N	0.2532459518773809 0.3532240707997315 0.6014814092059262	-0.232851
N	0.2467540481226191 0.1467759292002686 0.6014814092059262	-0.232850
N	0.6467759532002703 0.7467540241226172 0.8985185907940738	-0.232850
N	0.8532240467997297 0.7532459758773828 0.8985185907940738	-0.232851
N	0.7467540241226172 0.8532240467997297 0.8985185907940738	-0.232851
N	0.7532459758773828 0.6467759532002703 0.8985185907940738	-0.232850
N	0.6467759532002703 0.7532459758773828 0.3985186217940730	-0.232848
N	0.8532240467997297 0.7467540241226172 0.3985186217940730	-0.232849
N	0.7467540241226172 0.6467759532002703 0.3985186217940730	-0.232848
N	0.7532459758773828 0.8532240467997297 0.3985186217940730	-0.232849
N	0.3532240707997315 0.2532459518773809 0.1014814092059261	-0.232849
N	0.1467759292002686 0.2467540481226191 0.1014814092059261	-0.232848
N	0.2532459518773809 0.1467759292002686 0.1014814092059261	-0.232848
N	0.2467540481226191 0.3532240707997315 0.1014814092059261	-0.232849
C	0.3865918630923622 0.2183821126246683 0.6627841512097707	0.103044
C	0.4568485965871436 0.2176917693853780 0.6667054580866000	-0.172533
C	0.4950623926987132 0.2474423576875177 0.6056580546032507	0.107392
C	0.4591852738624251 0.2764313240476891 0.5421664667013041	-0.174072
C	0.3888751516882419 0.2750753762167705 0.5419181280322702	0.103808
C	0.5696482979998740 0.2483249292387998 0.6078622705013388	0.053899
C	0.6061221389184465 0.1923903982633667 0.6367429707479205	-0.127098
C	0.6765305205254321 0.1928793507882783 0.6374533630939063	-0.128155
C	0.7127173152996701 0.2498379525396546 0.6109590783023243	0.069822
C	0.6762235112526118 0.3061784554448745 0.5832460664589715	-0.120752
C	0.6058377356569334 0.3051386589676141 0.5809531768251026	-0.124715
C	0.1134081129076429 0.2816179113753338 0.6627841512097707	0.103045
C	0.0431513434128586 0.2823082546146242 0.6667054580866000	-0.172535
C	0.0049375863012886 0.2525576423124821 0.6056580546032507	0.107389
C	0.0408147531375737 0.2235686759523107 0.5421664667013041	-0.174067
C	0.1111248123117552 0.2249246477832316 0.5419181280322702	0.103805
C	0.9303516540001291 0.2516750467611982 0.6078622705013388	0.053888
C	0.8938779090815504 0.3076096367366326 0.6367429707479205	-0.127094
C	0.8234694794745679 0.3071206612117159 0.6374533630939063	-0.128150
C	0.7872826847003299 0.2501620234603436 0.6109590783023243	0.069801
C	0.8237765357473885 0.1938215445551255 0.5832460664589715	-0.120786
C	0.8941623603430674 0.1948613760323856 0.5809531768251026	-0.124643
C	0.2816179113753338 0.3865918630923622 0.6627841512097707	0.103046
C	0.2823082546146242 0.4568485965871436 0.6667054580866000	-0.172535
C	0.2525576423124821 0.4950623926987132 0.6056580546032507	0.107391
C	0.2235686759523107 0.4591852738624251 0.5421664667013041	-0.174069
C	0.2249246477832316 0.3888751516882419 0.5419181280322702	0.103808
C	0.2516750467611982 0.5696482979998740 0.6078622705013388	0.053899
C	0.3076096367366326 0.6061221389184465 0.6367429707479205	-0.127098
C	0.3071206612117159 0.6765305205254321 0.6374533630939063	-0.128156
C	0.2501620234603436 0.7127173152996701 0.6109590783023243	0.069819
C	0.1938215445551256 0.6762235112526118 0.5832460664589715	-0.120750
C	0.1948613760323856 0.6058377356569334 0.5809531768251026	-0.124716
C	0.2183821126246683 0.1134081129076429 0.6627841512097707	0.103044
C	0.2176917693853780 0.0431513434128586 0.6667054580866000	-0.172532
C	0.2474423576875177 0.0049375863012886 0.6056580546032507	0.107391
C	0.2764313240476891 0.0408147531375737 0.5421664667013041	-0.174069
C	0.2750753762167705 0.1111248123117552 0.5419181280322702	0.103805
C	0.2483249292387998 0.9303516540001291 0.6078622705013388	0.053888
C	0.1923903982633667 0.8938779090815504 0.6367429707479205	-0.127093
C	0.1928793507882783 0.8234694794745679 0.6374533630939063	-0.128149
C	0.2498379525396546 0.7872826847003299 0.6109590783023243	0.069803
C	0.3061784554448745 0.8237765357473885 0.5832460664589715	-0.120788
C	0.3051386589676141 0.8941623603430674 0.5809531768251026	-0.124642
C	0.6134081129076429 0.7183821606246652 0.8372158487902293	0.103042
C	0.5431513554128597 0.7176917933853730 0.8332945419134000	-0.172531
C	0.5049376073012865 0.7474424056875143 0.8943419453967493	0.107390
C	0.5408148221375754 0.7764312760476850 0.9578335332986959	-0.174070
C	0.6111248723117534 0.7750754002167658 0.9580818719677298	0.103805
C	0.4303517020001265 0.7483250012387986 0.8921377294986612	0.053900
C	0.3938778610815534 0.6923903632633671 0.8632570292520795	-0.127096
C	0.3234694074745613 0.6928793147882897 0.8625466369060937	-0.128154
C	0.2872827327003337 0.7498379765396563 0.8890409216976757	0.069818
C	0.3237764407473839 0.8061784554448748 0.9167539335410285	-0.120750
C	0.3941622883430619 0.8051385879676114 0.9190468231748974	-0.124713
C	0.8865918870923571 0.7816178393753348 0.8372158487902293	0.103046
C	0.9568486445871403 0.7823082066146270 0.8332945419134000	-0.172537
C	0.9950624406987104 0.7525575943124857 0.8943419453967493	0.107391
C	0.9591852258624286 0.7235687239523150 0.9578335332986959	-0.174067
C	0.8888751276882466 0.7249245997832342 0.9580818719677298	0.103807
C	0.0696483339998696 0.7516749987612014 0.8921377294986612	0.053898
C	0.1061221269184456 0.8076096367366329 0.8632570292520795	-0.127097
C	0.1765305685254365 0.8071206372117135 0.8625466369060937	-0.128155
C	0.2127172672996659 0.7501620234603437 0.8890409216976757	0.069819
C	0.1762235352526142 0.6938215445551252 0.9167539335410285	-0.120750
C	0.1058377116569381 0.6948613650323883 0.9190468231748974	-0.124717
C	0.7183821606246652 0.8865918870923571 0.8372158487902293	0.103048
C	0.7176917933853730 0.9568486445871403 0.8332945419134000	-0.172533
C	0.7474424056875143 0.9950624406987104 0.8943419453967493	0.107390
C	0.7764312760476850 0.9591852258624286 0.9578335332986959	-0.174071
C	0.7750754002167658 0.8888751276882466 0.9580818719677298	0.103807
C	0.7483250012387986 0.0696483339998696 0.8921377294986612	0.053899
C	0.6923903632633671 0.1061221269184456 0.8632570292520795	-0.127098
C	0.6928793147882897 0.1765305685254365 0.8625466369060937	-0.128154
C	0.7498379765396563 0.2127172672996659 0.8890409216976757	0.069818
C	0.8061784554448748 0.1762235352526142 0.9167539335410285	-0.120749
C	0.8051385879676114 0.1058377116569381 0.9190468231748974	-0.124716
C	0.7816178393753348 0.6134081129076429 0.8372158487902293	0.103042
C	0.7823082066146270 0.5431513554128597 0.8332945419134000	-0.172534
C	0.7525575943124857 0.5049376073012865 0.8943419453967493	0.107391
C	0.7235687239523150 0.5408148221375754 0.9578335332986959	-0.174066
C	0.7249245997832342 0.6111248723117534 0.9580818719677298	0.103806
C	0.7516749987612014 0.4303517020001265 0.8921377294986612	0.053900
C	0.8076096367366329 0.3938778610815534 0.8632570292520795	-0.127095
C	0.8071206372117135 0.3234694074745613 0.8625466369060937	-0.128156
C	0.7501620234603437 0.2872827327003337 0.8890409216976757	0.069819
C	0.6938215445551252 0.3237764407473839 0.9167539335410285	-0.120750
C	0.6948613650323883 0.3941622883430619 0.9190468231748974	-0.124714
C	0.6134081129076429 0.7816178393753348 0.3372158797902283	0.103045
C	0.5431513554128597 0.7823082066146270 0.3332945419134001	-0.172534
C	0.5049376073012865 0.7525575943124857 0.3943419453967495	0.107389
C	0.5408148221375754 0.7235687239523150 0.4578335642987014	-0.174066
C	0.6111248723117534 0.7249245997832342 0.4580818719677301	0.103804
C	0.4303517020001265 0.7516749987612014 0.3921377294986613	0.053899
C	0.3938778610815534 0.8076096367366329 0.3632569982520805	-0.127094
C	0.3234694074745613 0.8071206372117135 0.3625466679060928	-0.128156
C	0.2872827327003337 0.7501620234603437 0.3890408276976746	0.069819
C	0.3237764407473839 0.6938215445551252 0.4167539645410279	-0.120748
C	0.3941622883430619 0.6948613650323883 0.4190468231748976	-0.124714
C	0.8865918870923571 0.7183821606246652 0.3372158797902283	0.103045
C	0.9568486445871403 0.7176917933853730 0.3332945419134001	-0.172532
C	0.9950624406987104 0.7474424056875143 0.3943419453967495	0.107393
C	0.9591852258624286 0.7764312760476850 0.4578335642987014	-0.174071
C	0.8888751276882466 0.7750754002167658 0.4580818719677301	0.103808
C	0.0696483339998696 0.7483250012387986 0.3921377294986613	0.053899
C	0.1061221269184456 0.6923903632633671 0.3632569982520805	-0.127097
C	0.1765305685254365 0.6928793147882897 0.3625466679060928	-0.128156
C	0.2127172672996659 0.7498379765396563 0.3890408276976746	0.069820
C	0.1762235352526142 0.8061784554448748 0.4167539645410279	-0.120752
C	0.1058377116569381 0.8051385879676114 0.4190468231748976	-0.124714
C	0.7183821606246652 0.6134081129076429 0.3372158797902283	0.103044
C	0.7176917933853730 0.5431513554128597 0.3332945419134001	-0.172532
C	0.7474424056875143 0.5049376073012865 0.3943419453967495	0.107391
C	0.7764312760476850 0.5408148221375754 0.4578335642987014	-0.174068
C	0.7750754002167658 0.6111248723117534 0.4580818719677301	0.103804
C	0.7483250012387986 0.4303517020001265 0.3921377294986613	0.053900
C	0.6923903632633671 0.3938778610815534 0.3632569982520805	-0.127093
C	0.6928793147882897 0.3234694074745613 0.3625466679060928	-0.128155
C	0.7498379765396563 0.2872827327003337 0.3890408276976746	0.069822
C	0.8061784554448748 0.3237764407473839 0.4167539645410279	-0.120749
C	0.8051385879676114 0.3941622883430619 0.4190468231748976	-0.124713
C	0.7816178393753348 0.8865918870923571 0.3372158797902283	0.103047
C	0.7823082066146270 0.9568486445871403 0.3332945419134001	-0.172534
C	0.7525575943124857 0.9950624406987104 0.3943419453967495	0.107391
C	0.7235687239523150 0.9591852258624286 0.4578335642987014	-0.174068
C	0.7249245997832342 0.8888751276882466 0.4580818719677301	0.103809
C	0.7516749987612014 0.0696483339998696 0.3921377294986613	0.053899
C	0.8076096367366329 0.1061221269184456 0.3632569982520805	-0.127098
C	0.8071206372117135 0.1765305685254365 0.3625466679060928	-0.128157
C	0.7501620234603437 0.2127172672996659 0.3890408276976746	0.069817
C	0.6938215445551252 0.1762235352526142 0.4167539645410279	-0.120751
C	0.6948613650323883 0.1058377116569381 0.4190468231748976	-0.124716
C	0.3865918630923622 0.2816179113753338 0.1627841362097731	0.103047
C	0.4568485965871436 0.2823082546146242 0.1667054270866010	-0.172536
C	0.4950623926987132 0.2525576423124821 0.1056580546032507	0.107392
C	0.4591852738624251 0.2235686759523107 0.0421664317013053	-0.174067
C	0.3888751516882419 0.2249246477832316 0.0419181200322694	0.103807
C	0.5696482979998740 0.2516750467611982 0.1078622625013380	0.053899
C	0.6061221389184465 0.3076096367366326 0.1367429707479208	-0.127096
C	0.6765305205254321 0.3071206612117159 0.1374533160939060	-0.128157
C	0.7127173152996701 0.2501620234603436 0.1109591493023269	0.069822
C	0.6762235112526118 0.1938215445551256 0.0832460504589700	-0.120750
C	0.6058377356569334 0.1948613760323856 0.0809531918251002	-0.124716
C	0.1134081129076429 0.2183821126246683 0.1627841362097731	0.103043
C	0.0431513434128586 0.2176917693853780 0.1667054270866010	-0.172530
C	0.0049375863012886 0.2474423576875177 0.1056580546032507	0.107391
C	0.0408147531375737 0.2764313240476891 0.0421664317013053	-0.174071
C	0.1111248123117552 0.2750753762167705 0.0419181200322694	0.103806
C	0.9303516540001291 0.2483249292387998 0.1078622625013380	0.053888
C	0.8938779090815504 0.1923903982633667 0.1367429707479208	-0.127094
C	0.8234694794745679 0.1928793507882783 0.1374533160939060	-0.128151
C	0.7872826847003299 0.2498379525396546 0.1109591493023269	0.069801
C	0.8237765357473885 0.3061784554448745 0.0832460504589700	-0.120789
C	0.8941623603430674 0.3051386589676141 0.0809531918251002	-0.124640
C	0.2816179113753338 0.1134081129076429 0.1627841362097731	0.103043
C	0.2823082546146242 0.0431513434128586 0.1667054270866010	-0.172533
C	0.2525576423124821 0.0049375863012886 0.1056580546032507	0.107392
C	0.2235686759523107 0.0408147531375737 0.0421664317013053	-0.174067
C	0.2249246477832316 0.1111248123117552 0.0419181200322694	0.103806
C	0.2516750467611982 0.9303516540001291 0.1078622625013380	0.053888
C	0.3076096367366326 0.8938779090815504 0.1367429707479208	-0.127093
C	0.3071206612117159 0.8234694794745679 0.1374533160939060	-0.128153
C	0.2501620234603436 0.7872826847003299 0.1109591493023269	0.069804
C	0.1938215445551256 0.8237765357473885 0.0832460504589700	-0.120790
C	0.1948613760323856 0.8941623603430674 0.0809531918251002	-0.124641
C	0.2183821126246683 0.3865918630923622 0.1627841362097731	0.103048
C	0.2176917693853780 0.4568485965871436 0.1667054270866010	-0.172532
C	0.2474423576875177 0.4950623926987132 0.1056580546032507	0.107391
C	0.2764313240476891 0.4591852738624251 0.0421664317013053	-0.174070
C	0.2750753762167705 0.3888751516882419 0.0419181200322694	0.103807
C	0.2483249292387998 0.5696482979998740 0.1078622625013380	0.053899
C	0.1923903982633667 0.6061221389184465 0.1367429707479208	-0.127097
C	0.1928793507882783 0.6765305205254321 0.1374533160939060	-0.128155
C	0.2498379525396546 0.7127173152996701 0.1109591493023269	0.069820
C	0.3061784554448745 0.6762235112526118 0.0832460504589700	-0.120749
C	0.3051386589676141 0.6058377356569334 0.0809531918251002	-0.124715
H	0.3558838140524330 0.1971649619249819 0.7105631829330787	0.100038
H	0.4811054068973821 0.1957370703391967 0.7188945956768507	0.120413
H	0.4856199632459934 0.2987788823606942 0.4917091817150833	0.118898
H	0.3599083007246800 0.2960250093654448 0.4925099860992533	0.100426
H	0.5787362194333168 0.1478163495445807 0.6574427535508655	0.101441
H	0.7042428173552234 0.1491236330889523 0.6599913945254855	0.103984
H	0.7035874428271278 0.3503507822750938 0.5612897717706041	0.102602
H	0.5782842721360438 0.3492006969254874 0.5591940330390273	0.104537
H	0.1441161499475639 0.3028350620750201 0.7105631829330787	0.100037
H	0.0188945991026112 0.3042629536608054 0.7188945956768507	0.120416
H	0.0143800257540093 0.2012211296393072 0.4917091817150833	0.118895
H	0.1400917232753219 0.2039749786345542 0.4925099860992533	0.100426
H	0.9212638275666836 0.3521836504554193 0.6574427535508655	0.101441
H	0.7957571826447766 0.3508763549110467 0.6599913945254855	0.103983
H	0.7964125571728722 0.1496492297249075 0.5612897717706041	0.102603
H	0.9217157278639562 0.1507992910745189 0.5591940330390273	0.104533
H	0.3028350620750201 0.3558838140524330 0.7105631829330787	0.100038
H	0.3042629536608054 0.4811054068973821 0.7188945956768507	0.120416
H	0.2012211296393072 0.4856199632459934 0.4917091817150833	0.118897
H	0.2039749786345542 0.3599083007246800 0.4925099860992533	0.100426
H	0.3521836504554193 0.5787362194333168 0.6574427535508655	0.101441
H	0.3508763549110467 0.7042428173552234 0.6599913945254855	0.103983
H	0.1496492297249075 0.7035874428271278 0.5612897717706041	0.102604
H	0.1507992910745189 0.5782842721360438 0.5591940330390273	0.104540
H	0.1971649619249819 0.1441161499475639 0.7105631829330787	0.100037
H	0.1957370703391967 0.0188945991026112 0.7188945956768507	0.120413
H	0.2987788823606942 0.0143800257540093 0.4917091817150833	0.118896
H	0.2960250093654448 0.1400917232753219 0.4925099860992533	0.100426
H	0.1478163495445807 0.9212638275666836 0.6574427535508655	0.101442
H	0.1491236330889523 0.7957571826447766 0.6599913945254855	0.103984
H	0.3503507822750938 0.7964125571728722 0.5612897717706041	0.102601
H	0.3492006969254874 0.9217157278639562 0.5591940330390273	0.104530
H	0.6441161379475628 0.6971649619249816 0.7894368170669213	0.100037
H	0.5188945451026141 0.6957370463391945 0.7811054043231493	0.120413
H	0.5143800367540067 0.7987788823606942 0.0082908032849118	0.118896
H	0.6400916992753198 0.7960249853654424 0.0074900419007491	0.100425
H	0.4212637805666828 0.6478163495445806 0.8425572464491345	0.101442
H	0.2957572066447789 0.6491236450889534 0.8400086054745145	0.103985
H	0.2964125571728725 0.8503507822750933 0.9387102282293959	0.102604
H	0.4217157758639525 0.8492007209254822 0.9408059669609727	0.104539
H	0.8558839100524340 0.8028350860750224 0.7894368170669213	0.100037
H	0.9811053588973850 0.8042629536608055 0.7811054043231493	0.120415
H	0.9856199152459965 0.7012211176393058 0.0082908032849118	0.118898
H	0.8599082047246793 0.7039750146345576 0.0074900419007491	0.100427
H	0.0787362194333171 0.8521836504554194 0.8425572464491345	0.101440
H	0.2042427933552214 0.8508763549110466 0.8400086054745145	0.103982
H	0.2035874428271276 0.6496492657249036 0.9387102282293959	0.102604
H	0.0782842661360437 0.6507992790745178 0.9408059669609727	0.104538
H	0.6971649619249816 0.8558839100524340 0.7894368170669213	0.100037
H	0.6957370463391945 0.9811053588973850 0.7811054043231493	0.120414
H	0.7987788823606942 0.9856199152459965 0.0082908032849118	0.118899
H	0.7960249853654424 0.8599082047246793 0.0074900419007491	0.100427
H	0.6478163495445806 0.0787362194333171 0.8425572464491345	0.101443
H	0.6491236450889534 0.2042427933552214 0.8400086054745145	0.103984
H	0.8503507822750933 0.2035874428271276 0.9387102282293959	0.102603
H	0.8492007209254822 0.0782842661360437 0.9408059669609727	0.104538
H	0.8028350860750224 0.6441161379475628 0.7894368170669213	0.100037
H	0.8042629536608055 0.5188945451026141 0.7811054043231493	0.120414
H	0.7012211176393058 0.5143800367540067 0.0082908032849118	0.118895
H	0.7039750146345576 0.6400916992753198 0.0074900419007491	0.100425
H	0.8521836504554194 0.4212637805666828 0.8425572464491345	0.101440
H	0.8508763549110466 0.2957572066447789 0.8400086054745145	0.103984
H	0.6496492657249036 0.2964125571728725 0.9387102282293959	0.102605
H	0.6507992790745178 0.4217157758639525 0.9408059669609727	0.104540
H	0.6441161379475628 0.8028350860750224 0.2894368490669166	0.100036
H	0.5188945451026141 0.8042629536608055 0.2811054353231486	0.120414
H	0.5143800367540067 0.7012211176393058 0.5082907872849177	0.118894
H	0.6400916992753198 0.7039750146345576 0.5074900139007468	0.100426
H	0.4212637805666828 0.8521836504554194 0.3425572154491353	0.101441
H	0.2957572066447789 0.8508763549110466 0.3400085734745121	0.103984
H	0.2964125571728725 0.6496492657249036 0.4387102592293954	0.102607
H	0.4217157758639525 0.6507992790745178 0.4408060289609704	0.104539
H	0.8558839100524340 0.6971649619249816 0.2894368490669166	0.100037
H	0.9811053588973850 0.6957370463391945 0.2811054353231486	0.120411
H	0.9856199152459965 0.7987788823606942 0.5082907872849177	0.118897
H	0.8599082047246793 0.7960249853654424 0.5074900139007468	0.100426
H	0.0787362194333171 0.6478163495445806 0.3425572154491353	0.101440
H	0.2042427933552214 0.6491236450889534 0.3400085734745121	0.103984
H	0.2035874428271276 0.8503507822750933 0.4387102592293954	0.102601
H	0.0782842661360437 0.8492007209254822 0.4408060289609704	0.104536
H	0.6971649619249816 0.6441161379475628 0.2894368490669166	0.100036
H	0.6957370463391945 0.5188945451026141 0.2811054353231486	0.120411
H	0.7987788823606942 0.5143800367540067 0.5082907872849177	0.118895
H	0.7960249853654424 0.6400916992753198 0.5074900139007468	0.100426
H	0.6478163495445806 0.4212637805666828 0.3425572154491353	0.101442
H	0.6491236450889534 0.2957572066447789 0.3400085734745121	0.103985
H	0.8503507822750933 0.2964125571728725 0.4387102592293954	0.102604
H	0.8492007209254822 0.4217157758639525 0.4408060289609704	0.104536
H	0.8028350860750224 0.8558839100524340 0.2894368490669166	0.100037
H	0.8042629536608055 0.9811053588973850 0.2811054353231486	0.120414
H	0.7012211176393058 0.9856199152459965 0.5082907872849177	0.118896
H	0.7039750146345576 0.8599082047246793 0.5074900139007468	0.100426
H	0.8521836504554194 0.0787362194333171 0.3425572154491353	0.101440
H	0.8508763549110466 0.2042427933552214 0.3400085734745121	0.103983
H	0.6496492657249036 0.2035874428271276 0.4387102592293954	0.102604
H	0.6507992790745178 0.0782842661360437 0.4408060289609704	0.104539
H	0.3558838140524330 0.3028350620750201 0.2105631829330787	0.100037
H	0.4811054068973821 0.3042629536608054 0.2188946106768553	0.120414
H	0.4856199632459934 0.2012211296393072 0.9917092437150884	0.118896
H	0.3599083007246800 0.2039749786345542 0.9925099550992542	0.100427
H	0.5787362194333168 0.3521836504554193 0.1574427685508634	0.101440
H	0.7042428173552234 0.3508763549110467 0.1599914415254926	0.103982
H	0.7035874428271278 0.1496492297249075 0.0612897327706040	0.102604
H	0.5782842721360438 0.1507992910745189 0.0591939940390278	0.104537
H	0.1441161499475639 0.1971649619249819 0.2105631829330787	0.100037
H	0.0188945991026112 0.1957370703391967 0.2188946106768553	0.120412
H	0.0143800257540093 0.2987788823606942 0.9917092437150884	0.118894
H	0.1400917232753219 0.2960250093654448 0.9925099550992542	0.100425
H	0.9212638275666836 0.1478163495445807 0.1574427685508634	0.101442
H	0.7957571826447766 0.1491236330889523 0.1599914415254926	0.103984
H	0.7964125571728722 0.3503507822750938 0.0612897327706040	0.102600
H	0.9217157278639562 0.3492006969254874 0.0591939940390278	0.104530
H	0.3028350620750201 0.1441161499475639 0.2105631829330787	0.100037
H	0.3042629536608054 0.0188945991026112 0.2188946106768553	0.120413
H	0.2012211296393072 0.0143800257540093 0.9917092437150884	0.118893
H	0.2039749786345542 0.1400917232753219 0.9925099550992542	0.100425
H	0.3521836504554193 0.9212638275666836 0.1574427685508634	0.101439
H	0.3508763549110467 0.7957571826447766 0.1599914415254926	0.103984
H	0.1496492297249075 0.7964125571728722 0.0612897327706040	0.102603
H	0.1507992910745189 0.9217157278639562 0.0591939940390278	0.104531
H	0.1971649619249819 0.3558838140524330 0.2105631829330787	0.100037
H	0.1957370703391967 0.4811054068973821 0.2188946106768553	0.120413
H	0.2987788823606942 0.4856199632459934 0.9917092437150884	0.118897
H	0.2960250093654448 0.3599083007246800 0.9925099550992542	0.100427
H	0.1478163495445807 0.5787362194333168 0.1574427685508634	0.101443
H	0.1491236330889523 0.7042428173552234 0.1599914415254926	0.103982
H	0.3503507822750938 0.7035874428271278 0.0612897327706040	0.102602
H	0.3492006969254874 0.5782842721360438 0.0591939940390278	0.104537
Cu	0.2500000000000000 0.2500000000000000 0.6008066809340573	0.736657
Cu	0.7500000000000000 0.7500000000000000 0.8991933190659427	0.736657
Cu	0.7500000000000000 0.7500000000000000 0.3991932570659447	0.736653
Cu	0.2500000000000000 0.2500000000000000 0.1008067039340558	0.736653
Zr	0.2500000000000000 0.2500000000000000 0.3512506283314975	2.480083
Zr	0.7500000000000000 0.7500000000000000 0.1487493866685002	2.480083
Zr	0.7500000000000000 0.7500000000000000 0.6487494646684999	2.480083
Zr	0.2500000000000000 0.2500000000000000 0.8512505353315001	2.480083
	  	
