#======================================================================

# CRYSTAL DATA

#----------------------------------------------------------------------

data_VESTA_phase_1


_pd_phase_name                         ZrFSIX_2_Cu_i
_cell_length_a                         13.76114
_cell_length_b                         13.76114
_cell_length_c                         8.50558
_cell_angle_alpha                      90
_cell_angle_beta                       90
_cell_angle_gamma                      90
_symmetry_space_group_name_H-M         P 1
_symmetry_Int_Tables_number            1

loop_
_symmetry_equiv_pos_as_xyz
   x, y, z

loop_
   _atom_site_label
   _atom_site_fract_x
   _atom_site_fract_y
   _atom_site_fract_z
   _atom_site_charge
C	-0.0000000000000000 0.3007681301592488 0.3578847129619844	-0.153563
C	-0.0000000000000000 0.2000083709601005 0.3633167399408189	0.111406
C	0.5000000000000000 0.8007681301592491 0.8578847419619831	-0.153563
C	0.5000000000000000 0.7000083889601025 0.8633167399408191	0.111406
C	-0.0000000000000000 0.6992318698407509 0.3578847129619844	-0.153566
C	-0.0000000000000000 0.7999916110398975 0.3633167399408189	0.111408
C	0.5000000000000000 0.1992318868407492 0.8578847419619831	-0.153566
C	0.5000000000000000 0.2999916110398979 0.8633167399408191	0.111408
C	0.6992318698407509 -0.0000000000000000 0.3578847129619844	-0.153563
C	0.7999916110398975 -0.0000000000000000 0.3633167399408189	0.111408
C	0.1992318868407492 0.5000000000000000 0.8578847419619831	-0.153563
C	0.2999916110398979 0.5000000000000000 0.8633167399408191	0.111408
C	0.3007681301592488 -0.0000000000000000 0.3578847129619844	-0.153565
C	0.2000083709601005 -0.0000000000000000 0.3633167399408189	0.111410
C	0.8007681301592491 0.5000000000000000 0.8578847419619831	-0.153566
C	0.7000083889601025 0.5000000000000000 0.8633167399408191	0.111410
C	-0.0000000000000000 0.3007681301592488 0.6421152580380169	-0.153561
C	-0.0000000000000000 0.2000083709601005 0.6366832600591809	0.111413
C	0.5000000000000000 0.8007681301592491 0.1421152870380157	-0.153560
C	0.5000000000000000 0.7000083889601025 0.1366832450591832	0.111407
C	-0.0000000000000000 0.6992318698407509 0.6421152580380169	-0.153563
C	-0.0000000000000000 0.7999916110398975 0.6366832600591809	0.111415
C	0.5000000000000000 0.1992318868407492 0.1421152870380157	-0.153563
C	0.5000000000000000 0.2999916110398979 0.1366832450591832	0.111409
C	0.3007681301592488 -0.0000000000000000 0.6421152580380169	-0.153563
C	0.2000083709601005 -0.0000000000000000 0.6366832600591809	0.111417
C	0.8007681301592491 0.5000000000000000 0.1421152870380157	-0.153563
C	0.7000083889601025 0.5000000000000000 0.1366832450591832	0.111411
C	0.6992318698407509 -0.0000000000000000 0.6421152580380169	-0.153561
C	0.7999916110398975 -0.0000000000000000 0.6366832600591809	0.111415
C	0.1992318868407492 0.5000000000000000 0.1421152870380157	-0.153560
C	0.2999916110398979 0.5000000000000000 0.1366832450591832	0.111409
C	-0.0000000000000000 0.4557014504346792 0.5000000000000000	-0.093907
C	-0.0000000000000000 0.3531256252688837 0.5000000000000000	0.168434
C	0.5000000000000000 0.9557014844346816 0.0000000000000000	-0.093907
C	0.5000000000000000 0.8531255902688843 0.0000000000000000	0.168434
C	-0.0000000000000000 0.5442985495653212 0.5000000000000000	-0.093659
C	-0.0000000000000000 0.6468744097311157 0.5000000000000000	0.168404
C	0.5000000000000000 0.0442985285653157 0.0000000000000000	-0.093659
C	0.5000000000000000 0.1468744097311156 0.0000000000000000	0.168404
C	0.5442985495653212 -0.0000000000000000 0.5000000000000000	-0.093907
C	0.6468744097311157 -0.0000000000000000 0.5000000000000000	0.168434
C	0.0442985285653157 0.5000000000000000 0.0000000000000000	-0.093907
C	0.1468744097311156 0.5000000000000000 0.0000000000000000	0.168434
C	0.4557014504346792 -0.0000000000000000 0.5000000000000000	-0.093659
C	0.3531256252688837 -0.0000000000000000 0.5000000000000000	0.168404
C	0.9557014844346816 0.5000000000000000 0.0000000000000000	-0.093659
C	0.8531255902688843 0.5000000000000000 0.0000000000000000	0.168404
H	-0.0000000000000000 0.3382917734651079 0.2450758688535501	0.125067
H	-0.0000000000000000 0.1573678501744452 0.2557704268614759	0.091888
H	0.5000000000000000 0.8382917734651083 0.7450758688535495	0.125067
H	0.5000000000000000 0.6573677971744444 0.7557704568614778	0.091888
H	-0.0000000000000000 0.6617082265348917 0.2450758688535501	0.125066
H	-0.0000000000000000 0.8426322028255556 0.2557704268614759	0.091888
H	0.5000000000000000 0.1617082265348919 0.7450758688535495	0.125066
H	0.5000000000000000 0.3426321678255494 0.7557704568614778	0.091888
H	0.6617082265348917 -0.0000000000000000 0.2450758688535501	0.125067
H	0.8426322028255556 -0.0000000000000000 0.2557704268614759	0.091887
H	0.1617082265348919 0.5000000000000000 0.7450758688535495	0.125067
H	0.3426321678255494 0.5000000000000000 0.7557704568614778	0.091887
H	0.3382917734651079 -0.0000000000000000 0.2450758688535501	0.125066
H	0.1573678501744452 -0.0000000000000000 0.2557704268614759	0.091887
H	0.8382917734651083 0.5000000000000000 0.7450758688535495	0.125066
H	0.6573677971744444 0.5000000000000000 0.7557704568614778	0.091887
H	-0.0000000000000000 0.3382917734651079 0.7549241311464505	0.125066
H	-0.0000000000000000 0.1573678501744452 0.7442294851385245	0.091881
H	0.5000000000000000 0.8382917734651083 0.2549241311464499	0.125066
H	0.5000000000000000 0.6573677971744444 0.2442295731385241	0.091888
H	-0.0000000000000000 0.6617082265348917 0.7549241311464505	0.125065
H	-0.0000000000000000 0.8426322028255556 0.7442294851385245	0.091882
H	0.5000000000000000 0.1617082265348919 0.2549241311464499	0.125065
H	0.5000000000000000 0.3426321678255494 0.2442295731385241	0.091888
H	0.3382917734651079 -0.0000000000000000 0.7549241311464505	0.125065
H	0.1573678501744452 -0.0000000000000000 0.7442294851385245	0.091881
H	0.8382917734651083 0.5000000000000000 0.2549241311464499	0.125065
H	0.6573677971744444 0.5000000000000000 0.2442295731385241	0.091887
H	0.6617082265348917 -0.0000000000000000 0.7549241311464505	0.125066
H	0.8426322028255556 -0.0000000000000000 0.7442294851385245	0.091880
H	0.1617082265348919 0.5000000000000000 0.2549241311464499	0.125066
H	0.3426321678255494 0.5000000000000000 0.2442295731385241	0.091887
Cu	-0.0000000000000000 -0.0000000000000000 0.5000000000000000	0.723513
Cu	0.5000000000000000 0.5000000000000000 0.0000000000000000	0.723513
Zr	-0.0000000000000000 -0.0000000000000000 0.0000000000000000	2.461600
Zr	0.5000000000000000 0.5000000000000000 0.5000000000000000	2.461601
N	-0.0000000000000000 0.1502137008878422 0.5000000000000000	-0.225573
N	0.5000000000000000 0.6502136828878406 0.0000000000000000	-0.225574
N	-0.0000000000000000 0.8497863171121594 0.5000000000000000	-0.225573
N	0.5000000000000000 0.3497863171121593 0.0000000000000000	-0.225574
N	0.8497863171121594 -0.0000000000000000 0.5000000000000000	-0.225574
N	0.3497863171121593 0.5000000000000000 0.0000000000000000	-0.225575
N	0.1502137008878422 -0.0000000000000000 0.5000000000000000	-0.225573
N	0.6502136828878406 0.5000000000000000 0.0000000000000000	-0.225574
F	-0.0000000000000000 -0.0000000000000000 0.7573776430365825	-0.634995
F	0.5000000000000000 0.5000000000000000 0.2573777320365860	-0.634996
F	-0.0000000000000000 -0.0000000000000000 0.2426222829634188	-0.634996
F	0.5000000000000000 0.5000000000000000 0.7426223569634175	-0.634996
F	0.6046496963555830 0.6046496963555830 0.5000000000000000	-0.677440
F	0.6046496963555830 0.3953503036444168 0.5000000000000000	-0.677440
F	0.3953503036444169 0.6046496963555830 0.5000000000000000	-0.677440
F	0.3953503036444168 0.3953503036444169 0.5000000000000000	-0.677440
F	0.1046497133555810 0.1046497133555810 0.0000000000000000	-0.677441
F	0.8953503036444170 0.8953503036444170 0.0000000000000000	-0.677441
F	0.8953503036444170 0.1046497133555810 0.0000000000000000	-0.677441
F	0.1046497133555810 0.8953503036444170 0.0000000000000000	-0.677441
	  	
