#======================================================================

# CRYSTAL DATA

#----------------------------------------------------------------------

data_VESTA_phase_1


_pd_phase_name                         ZrFSIX_6_Co_i
_cell_length_a                         17.40633
_cell_length_b                         17.40633
_cell_length_c                         16.42642
_cell_angle_alpha                      90
_cell_angle_beta                       90
_cell_angle_gamma                      90
_symmetry_space_group_name_H-M         P 1
_symmetry_Int_Tables_number            1

loop_
_symmetry_equiv_pos_as_xyz
   x, y, z

loop_
   _atom_site_label
   _atom_site_fract_x
   _atom_site_fract_y
   _atom_site_fract_z
   _atom_site_charge
N	0.2440256179518880 0.1378054660781417 0.1279643857499479	-0.197758
N	0.2559743820481121 0.3621945479218594 0.1279643857499479	-0.197757
N	0.3621945479218594 0.2440256179518880 0.1279643857499479	-0.197757
N	0.1378054660781416 0.2559743820481121 0.1279643857499479	-0.197757
N	0.7559743550481137 0.6378054790781464 0.3720355992500545	-0.197759
N	0.7440256449518863 0.8621945209218536 0.3720355992500545	-0.197758
N	0.6378054790781464 0.7440256449518863 0.3720355992500545	-0.197758
N	0.8621945209218536 0.7559743550481137 0.3720355992500545	-0.197758
N	0.7559743550481137 0.8621945209218536 0.8720355992500545	-0.197759
N	0.7440256449518863 0.6378054790781464 0.8720355992500545	-0.197760
N	0.6378054790781463 0.7559743550481137 0.8720355992500545	-0.197759
N	0.8621945209218537 0.7440256449518863 0.8720355992500545	-0.197759
N	0.2440256179518880 0.3621945479218594 0.6279644007499455	-0.197758
N	0.2559743820481121 0.1378054660781417 0.6279644007499455	-0.197759
N	0.3621945479218594 0.2559743820481121 0.6279644007499455	-0.197758
N	0.1378054660781417 0.2440256179518880 0.6279644007499455	-0.197757
C	0.2014657037175279 0.1006140084490014 0.1843101877530377	0.093050
C	0.1933286624261698 0.0213679022368295 0.1838315845283476	-0.173502
C	0.2320725543506536 0.9776839537337411 0.1251131714214703	0.110296
C	0.2775299607349403 0.0168880284242787 0.0682541534681069	-0.171126
C	0.2812820297047530 0.0964533546225674 0.0706798312240379	0.094383
C	0.2258322553708925 0.8934374993847148 0.1238184554359556	0.060362
C	0.2916239691586003 0.8488331899582723 0.1207322178152514	-0.173516
C	0.2871541822490939 0.7678661693445230 0.1218711639484774	0.084139
C	0.1460840489284401 0.7789412205438230 0.1245404050155228	-0.121331
C	0.1523875732144085 0.8576940472276234 0.1269079001307243	-0.137196
C	0.2985342562824759 0.3993860045509962 0.1843101877530377	0.093048
C	0.3066712975738268 0.4786320787631724 0.1838315845283476	-0.173501
C	0.2679274456493464 0.5223160462662589 0.1251131714214703	0.110297
C	0.2224700522650573 0.4831119685757173 0.0682541534681069	-0.171126
C	0.2187179842952481 0.4035466523774366 0.0706798312240379	0.094381
C	0.2741677446291074 0.6065625006152852 0.1238184554359556	0.060362
C	0.2083760718413995 0.6511668100417277 0.1207322178152514	-0.173513
C	0.2128457907509073 0.7321338306554770 0.1218711639484774	0.084127
C	0.3539159370715588 0.7210587794561770 0.1245404050155228	-0.121339
C	0.3476124267855915 0.6423059527723766 0.1269079001307243	-0.137193
C	0.3993860045509962 0.2014657037175279 0.1843101877530377	0.093049
C	0.4786320787631724 0.1933286624261698 0.1838315845283476	-0.173502
C	0.5223160462662589 0.2320725543506536 0.1251131714214703	0.110296
C	0.4831119685757173 0.2775299607349403 0.0682541534681069	-0.171125
C	0.4035466523774366 0.2812820297047530 0.0706798312240379	0.094381
C	0.6065625006152852 0.2258322553708925 0.1238184554359556	0.060362
C	0.6511668100417277 0.2916239691586003 0.1207322178152514	-0.173515
C	0.7321338306554770 0.2871541822490939 0.1218711639484774	0.084139
C	0.7210587794561770 0.1460840489284401 0.1245404050155228	-0.121331
C	0.6423059527723766 0.1523875732144085 0.1269079001307243	-0.137195
C	0.1006140084490014 0.2985342562824759 0.1843101877530377	0.093049
C	0.0213679022368295 0.3066712975738268 0.1838315845283476	-0.173501
C	0.9776839537337411 0.2679274456493464 0.1251131714214703	0.110297
C	0.0168880284242787 0.2224700522650573 0.0682541534681069	-0.171127
C	0.0964533546225674 0.2187179842952481 0.0706798312240379	0.094383
C	0.8934374993847148 0.2741677446291074 0.1238184554359556	0.060361
C	0.8488331899582723 0.2083760718413995 0.1207322178152514	-0.173515
C	0.7678661693445230 0.2128457907509073 0.1218711639484774	0.084127
C	0.7789412205438230 0.3539159370715588 0.1245404050155228	-0.121339
C	0.8576940472276234 0.3476124267855915 0.1269079001307243	-0.137195
C	0.7985343092824693 0.6006139954490038 0.3156898282469636	0.093054
C	0.8066713505738276 0.5213678672368228 0.3161683844716534	-0.173526
C	0.7679274456493465 0.4776839537337410 0.3748867965785271	0.110387
C	0.7224700122650610 0.5168880854242801 0.4317458505318933	-0.171151
C	0.7187179442952448 0.5964534016225675 0.4293202087759583	0.094386
C	0.7741678246291072 0.3934375523847156 0.3761815365640438	0.060323
C	0.7083760578413985 0.3488331369582718 0.3792677741847478	-0.173541
C	0.7128458177509062 0.2678660893445234 0.3781288360515226	0.084138
C	0.8539159640715649 0.2789411935438245 0.3754595789844759	-0.121333
C	0.8476123737855908 0.3576940212276213 0.3730921318692783	-0.137192
C	0.7014656907175307 0.8993860045509962 0.3156898282469636	0.093051
C	0.6933286494261724 0.9786320787631727 0.3161683844716534	-0.173527
C	0.7320725543506535 0.0223160522662594 0.3748867965785271	0.110388
C	0.7775299877349390 0.9831119685757173 0.4317458505318933	-0.171150
C	0.7812820557047552 0.9035467053774378 0.4293202087759583	0.094385
C	0.7258321753708928 0.1065624746152830 0.3761815365640438	0.060323
C	0.7916239421586015 0.1511668500417236 0.3792677741847478	-0.173541
C	0.7871541822490938 0.2321338836554779 0.3781288360515226	0.084132
C	0.6460840359284351 0.2210587934561781 0.3754595789844759	-0.121318
C	0.6523876262144092 0.1423059527723765 0.3730921318692783	-0.137191
C	0.6006139954490038 0.7014656907175307 0.3156898282469636	0.093054
C	0.5213678672368228 0.6933286494261724 0.3161683844716534	-0.173527
C	0.4776839537337410 0.7320725543506535 0.3748867965785271	0.110388
C	0.5168880854242801 0.7775299877349390 0.4317458505318933	-0.171150
C	0.5964534016225675 0.7812820557047552 0.4293202087759583	0.094385
C	0.3934375523847156 0.7258321753708928 0.3761815365640438	0.060323
C	0.3488331369582718 0.7916239421586015 0.3792677741847478	-0.173542
C	0.2678660893445234 0.7871541822490938 0.3781288360515226	0.084138
C	0.2789411935438245 0.6460840359284351 0.3754595789844759	-0.121333
C	0.3576940212276213 0.6523876262144092 0.3730921318692783	-0.137192
C	0.8993860045509962 0.7985343092824693 0.3156898282469636	0.093052
C	0.9786320787631727 0.8066713505738276 0.3161683844716534	-0.173525
C	0.0223160522662594 0.7679274456493465 0.3748867965785271	0.110386
C	0.9831119685757173 0.7224700122650610 0.4317458505318933	-0.171151
C	0.9035467053774378 0.7187179442952448 0.4293202087759583	0.094385
C	0.1065624746152830 0.7741678246291072 0.3761815365640438	0.060324
C	0.1511668500417236 0.7083760578413985 0.3792677741847478	-0.173541
C	0.2321338836554779 0.7128458177509062 0.3781288360515226	0.084132
C	0.2210587934561781 0.8539159640715649 0.3754595789844759	-0.121318
C	0.1423059527723765 0.8476123737855908 0.3730921318692783	-0.137192
C	0.7985343092824693 0.8993860045509962 0.8156897962469611	0.093052
C	0.8066713505738276 0.9786320787631727 0.8161684474716552	-0.173525
C	0.7679274456493465 0.0223160522662594 0.8748868605785255	0.110388
C	0.7224700122650610 0.9831119685757173 0.9317458195318943	-0.171151
C	0.7187179442952448 0.9035467053774378 0.9293201767759559	0.094384
C	0.7741678246291072 0.1065624746152830 0.8761815365640439	0.060323
C	0.7083760578413985 0.1511668500417236 0.8792678061847505	-0.173541
C	0.7128458177509062 0.2321338836554779 0.8781288680515182	0.084144
C	0.8539159640715649 0.2210587934561781 0.8754596419844777	-0.121311
C	0.8476123737855908 0.1423059527723765 0.8730921638692740	-0.137194
C	0.7014656907175307 0.6006139954490038 0.8156897962469611	0.093053
C	0.6933286494261724 0.5213678672368228 0.8161684474716552	-0.173526
C	0.7320725543506535 0.4776839537337410 0.8748868605785255	0.110386
C	0.7775299877349390 0.5168880854242801 0.9317458195318943	-0.171150
C	0.7812820557047552 0.5964534016225675 0.9293201767759559	0.094386
C	0.7258321753708928 0.3934375523847156 0.8761815365640439	0.060323
C	0.7916239421586015 0.3488331369582718 0.8792678061847505	-0.173541
C	0.7871541822490938 0.2678660893445234 0.8781288680515182	0.084126
C	0.6460840359284351 0.2789411935438245 0.8754596419844777	-0.121340
C	0.6523876262144092 0.3576940212276213 0.8730921638692740	-0.137190
C	0.6006139954490038 0.7985343092824693 0.8156897962469611	0.093053
C	0.5213678672368228 0.8066713505738276 0.8161684474716552	-0.173525
C	0.4776839537337410 0.7679274456493465 0.8748868605785255	0.110387
C	0.5168880854242801 0.7224700122650610 0.9317458195318943	-0.171152
C	0.5964534016225675 0.7187179442952448 0.9293201767759559	0.094386
C	0.3934375523847156 0.7741678246291072 0.8761815365640439	0.060323
C	0.3488331369582718 0.7083760578413985 0.8792678061847505	-0.173542
C	0.2678660893445234 0.7128458177509062 0.8781288680515182	0.084138
C	0.2789411935438245 0.8539159640715649 0.8754596419844777	-0.121334
C	0.3576940212276213 0.8476123737855908 0.8730921638692740	-0.137192
C	0.8993860045509962 0.7014656907175307 0.8156897962469611	0.093053
C	0.9786320787631727 0.6933286494261724 0.8161684474716552	-0.173526
C	0.0223160522662594 0.7320725543506535 0.8748868605785255	0.110386
C	0.9831119685757173 0.7775299877349390 0.9317458195318943	-0.171150
C	0.9035467053774378 0.7812820557047552 0.9293201767759559	0.094385
C	0.1065624746152830 0.7258321753708928 0.8761815365640439	0.060323
C	0.1511668500417236 0.7916239421586015 0.8792678061847505	-0.173541
C	0.2321338836554779 0.7871541822490938 0.8781288680515182	0.084132
C	0.2210587934561781 0.6460840359284351 0.8754596419844777	-0.121317
C	0.1423059527723765 0.6523876262144092 0.8730921638692740	-0.137193
C	0.2014657037175279 0.3993860045509962 0.6843102037530389	0.093047
C	0.1933286624261698 0.4786320787631724 0.6838315525283448	-0.173502
C	0.2320725543506536 0.5223160462662589 0.6251131394214745	0.110297
C	0.2775299607349403 0.4831119685757173 0.5682541804681057	-0.171125
C	0.2812820297047530 0.4035466523774366 0.5706798232240441	0.094381
C	0.2258322553708925 0.6065625006152852 0.6238184634359561	0.060362
C	0.2916239691586003 0.6511668100417277 0.6207321938152495	-0.173515
C	0.2871541822490939 0.7321338306554770 0.6218711319484818	0.084139
C	0.1460840489284401 0.7210587794561770 0.6245403580155223	-0.121330
C	0.1523875732144085 0.6423059527723766 0.6269078361307260	-0.137195
C	0.2985342562824759 0.1006140084490014 0.6843102037530389	0.093050
C	0.3066712975738268 0.0213679022368295 0.6838315525283448	-0.173501
C	0.2679274456493464 0.9776839537337411 0.6251131394214745	0.110295
C	0.2224700522650573 0.0168880284242787 0.5682541804681057	-0.171127
C	0.2187179842952481 0.0964533546225674 0.5706798232240441	0.094382
C	0.2741677446291074 0.8934374993847148 0.6238184634359561	0.060362
C	0.2083760718413995 0.8488331899582723 0.6207321938152495	-0.173514
C	0.2128457907509073 0.7678661693445230 0.6218711319484818	0.084127
C	0.3539159370715588 0.7789412205438230 0.6245403580155223	-0.121337
C	0.3476124267855915 0.8576940472276234 0.6269078361307260	-0.137195
C	0.3993860045509962 0.2985342562824759 0.6843102037530389	0.093048
C	0.4786320787631724 0.3066712975738268 0.6838315525283448	-0.173500
C	0.5223160462662589 0.2679274456493464 0.6251131394214745	0.110295
C	0.4831119685757173 0.2224700522650573 0.5682541804681057	-0.171126
C	0.4035466523774366 0.2187179842952481 0.5706798232240441	0.094382
C	0.6065625006152852 0.2741677446291074 0.6238184634359561	0.060363
C	0.6511668100417277 0.2083760718413995 0.6207321938152495	-0.173515
C	0.7321338306554770 0.2128457907509073 0.6218711319484818	0.084140
C	0.7210587794561770 0.3539159370715588 0.6245403580155223	-0.121330
C	0.6423059527723766 0.3476124267855915 0.6269078361307260	-0.137195
C	0.1006140084490014 0.2014657037175279 0.6843102037530389	0.093050
C	0.0213679022368295 0.1933286624261698 0.6838315525283448	-0.173502
C	0.9776839537337411 0.2320725543506536 0.6251131394214745	0.110297
C	0.0168880284242787 0.2775299607349403 0.5682541804681057	-0.171125
C	0.0964533546225674 0.2812820297047530 0.5706798232240441	0.094382
C	0.8934374993847148 0.2258322553708925 0.6238184634359561	0.060362
C	0.8488331899582723 0.2916239691586003 0.6207321938152495	-0.173515
C	0.7678661693445230 0.2871541822490939 0.6218711319484818	0.084127
C	0.7789412205438230 0.1460840489284401 0.6245403580155223	-0.121337
C	0.8576940472276234 0.1523875732144085 0.6269078361307260	-0.137196
H	0.1745940754665378 0.1359499508121815 0.2311330553814312	0.102479
H	0.1587457139903924 0.9935563967237654 0.2306309381708177	0.119254
H	0.3083080563332886 0.9856528115871273 0.0208904583021848	0.119720
H	0.3134821322216234 0.1288483058376769 0.0252718668408454	0.101161
H	0.3480928511345561 0.8761144771075869 0.1201046035957569	0.109303
H	0.0898008607980465 0.7511974611017750 0.1252356329030782	0.110283
H	0.1010271899240385 0.8935822533585356 0.1292229665679160	0.102451
H	0.3254058975334634 0.3640500761878243 0.2311330553814312	0.102478
H	0.3412543260096038 0.5064436032762346 0.2306309381708177	0.119254
H	0.1916919566667089 0.5143471884128727 0.0208904583021848	0.119721
H	0.1865178677783766 0.3711516941623231 0.0252718668408454	0.101160
H	0.1519071628654450 0.6238855228924131 0.1201046035957569	0.109304
H	0.4101991322019492 0.7488025388982250 0.1252356329030782	0.110287
H	0.3989728230759660 0.6064177466414644 0.1292229665679160	0.102451
H	0.3640500761878243 0.1745940754665378 0.2311330553814312	0.102478
H	0.5064436032762346 0.1587457139903924 0.2306309381708177	0.119255
H	0.5143471884128727 0.3083080563332886 0.0208904583021848	0.119721
H	0.3711516941623231 0.3134821322216234 0.0252718668408454	0.101160
H	0.6238855228924131 0.3480928511345561 0.1201046035957569	0.109304
H	0.7488025388982250 0.0898008607980465 0.1252356329030782	0.110283
H	0.6064177466414644 0.1010271899240385 0.1292229665679160	0.102453
H	0.1359499508121815 0.3254058975334634 0.2311330553814312	0.102479
H	0.9935563967237654 0.3412543260096038 0.2306309381708177	0.119254
H	0.9856528115871273 0.1916919566667089 0.0208904583021848	0.119721
H	0.1288483058376769 0.1865178677783766 0.0252718668408454	0.101161
H	0.8761144771075869 0.1519071628654450 0.1201046035957569	0.109305
H	0.7511974611017750 0.4101991322019492 0.1252356329030782	0.110287
H	0.8935822533585356 0.3989728230759660 0.1292229665679160	0.102452
H	0.8254058975334636 0.6359499778121801 0.2688669606185702	0.102479
H	0.8412542450096079 0.4935564507237628 0.2693690618291822	0.119258
H	0.6916919436667114 0.4856528115871273 0.4791095436978153	0.119724
H	0.6865179207783775 0.6288483328376757 0.4747281311591543	0.101161
H	0.6519071488654439 0.3761144231075898 0.3798954044042439	0.109308
H	0.9101990792019485 0.2511974881017736 0.3747643590969210	0.110284
H	0.8989727960759675 0.3935822793585302 0.3707770414320846	0.102452
H	0.6745941024665364 0.8640500221878199 0.2688669606185702	0.102478
H	0.6587457549903921 0.0064435652762314 0.2693690618291822	0.119258
H	0.8083080563332886 0.0143471874128690 0.4791095436978153	0.119724
H	0.8134820792216225 0.8711516671623243 0.4747281311591543	0.101160
H	0.8480928511345561 0.1238855898924149 0.3798954044042439	0.109313
H	0.5898008677980506 0.2488024848982206 0.3747643590969210	0.110269
H	0.6010272039240325 0.1064177336414671 0.3707770414320846	0.102450
H	0.6359499778121801 0.6745941024665364 0.2688669606185702	0.102479
H	0.4935564507237628 0.6587457549903921 0.2693690618291822	0.119259
H	0.4856528115871273 0.8083080563332886 0.4791095436978153	0.119724
H	0.6288483328376757 0.8134820792216225 0.4747281311591543	0.101161
H	0.3761144231075898 0.8480928511345561 0.3798954044042439	0.109311
H	0.2511974881017736 0.5898008677980506 0.3747643590969210	0.110283
H	0.3935822793585302 0.6010272039240325 0.3707770414320846	0.102451
H	0.8640500221878199 0.8254058975334636 0.2688669606185702	0.102478
H	0.0064435652762314 0.8412542450096079 0.2693690618291822	0.119258
H	0.0143471874128690 0.6916919436667114 0.4791095436978153	0.119725
H	0.8711516671623243 0.6865179207783775 0.4747281311591543	0.101160
H	0.1238855898924149 0.6519071488654439 0.3798954044042439	0.109313
H	0.2488024848982206 0.9101990792019485 0.3747643590969210	0.110270
H	0.1064177336414671 0.8989727960759675 0.3707770414320846	0.102453
H	0.8254058975334636 0.8640500221878199 0.7688669296185713	0.102478
H	0.8412542450096079 0.0064435652762314 0.7693690768291870	0.119258
H	0.6916919436667114 0.0143471874128690 0.9791095746978141	0.119725
H	0.6865179207783775 0.8711516671623243 0.9747280671591566	0.101160
H	0.6519071488654439 0.1238855898924149 0.8798953724042413	0.109308
H	0.9101990792019485 0.2488024848982206 0.8747642960969193	0.110267
H	0.8989727960759675 0.1064177336414671 0.8707770094320822	0.102453
H	0.6745941024665364 0.6359499778121801 0.7688669296185713	0.102479
H	0.6587457549903921 0.4935564507237628 0.7693690768291870	0.119258
H	0.8083080563332886 0.4856528115871273 0.9791095746978141	0.119724
H	0.8134820792216225 0.6288483328376757 0.9747280671591566	0.101161
H	0.8480928511345561 0.3761144231075898 0.8798953724042413	0.109309
H	0.5898008677980506 0.2511974881017736 0.8747642960969193	0.110285
H	0.6010272039240325 0.3935822793585302 0.8707770094320822	0.102452
H	0.6359499778121801 0.8254058975334636 0.7688669296185713	0.102479
H	0.4935564507237628 0.8412542450096079 0.7693690768291870	0.119257
H	0.4856528115871273 0.6916919436667114 0.9791095746978141	0.119725
H	0.6288483328376757 0.6865179207783775 0.9747280671591566	0.101161
H	0.3761144231075898 0.6519071488654439 0.8798953724042413	0.109308
H	0.2511974881017736 0.9101990792019485 0.8747642960969193	0.110284
H	0.3935822793585302 0.8989727960759675 0.8707770094320822	0.102453
H	0.8640500221878199 0.6745941024665364 0.7688669296185713	0.102478
H	0.0064435652762314 0.6587457549903921 0.7693690768291870	0.119259
H	0.0143471874128690 0.8083080563332886 0.9791095746978141	0.119725
H	0.8711516671623243 0.8134820792216225 0.9747280671591566	0.101160
H	0.1238855898924149 0.8480928511345561 0.8798953724042413	0.109312
H	0.2488024848982206 0.5898008677980506 0.8747642960969193	0.110268
H	0.1064177336414671 0.6010272039240325 0.8707770094320822	0.102454
H	0.1745940754665378 0.3640500761878243 0.7311330703814287	0.102478
H	0.1587457139903924 0.5064436032762346 0.7306309231708130	0.119255
H	0.3083080563332886 0.5143471884128727 0.5208904563021849	0.119721
H	0.3134821322216234 0.3711516941623231 0.5252718688408452	0.101161
H	0.3480928511345561 0.6238855228924131 0.6201046275957587	0.109306
H	0.0898008607980465 0.7488025388982250 0.6252357039030807	0.110282
H	0.1010271899240385 0.6064177466414644 0.6292229905679178	0.102451
H	0.3254058975334634 0.1359499508121815 0.7311330703814287	0.102479
H	0.3412543260096038 0.9935563967237654 0.7306309231708130	0.119255
H	0.1916919566667089 0.9856528115871273 0.5208904563021849	0.119722
H	0.1865178677783766 0.1288483058376769 0.5252718688408452	0.101161
H	0.1519071628654450 0.8761144771075869 0.6201046275957587	0.109306
H	0.4101991322019492 0.7511974611017750 0.6252357039030807	0.110285
H	0.3989728230759660 0.8935822533585356 0.6292229905679178	0.102454
H	0.3640500761878243 0.3254058975334634 0.7311330703814287	0.102478
H	0.5064436032762346 0.3412543260096038 0.7306309231708130	0.119255
H	0.5143471884128727 0.1916919566667089 0.5208904563021849	0.119723
H	0.3711516941623231 0.1865178677783766 0.5252718688408452	0.101160
H	0.6238855228924131 0.1519071628654450 0.6201046275957587	0.109306
H	0.7488025388982250 0.4101991322019492 0.6252357039030807	0.110283
H	0.6064177466414644 0.3989728230759660 0.6292229905679178	0.102454
H	0.1359499508121815 0.1745940754665378 0.7311330703814287	0.102479
H	0.9935563967237654 0.1587457139903924 0.7306309231708130	0.119256
H	0.9856528115871273 0.3083080563332886 0.5208904563021849	0.119721
H	0.1288483058376769 0.3134821322216234 0.5252718688408452	0.101161
H	0.8761144771075869 0.3480928511345561 0.6201046275957587	0.109308
H	0.7511974611017750 0.0898008607980465 0.6252357039030807	0.110284
H	0.8935822533585356 0.1010271899240385 0.6292229905679178	0.102453
F	0.3185428712144351 0.1544144311936995 0.3780957164400031	-0.693465
F	0.1814571557855636 0.3455855688063006 0.3780957164400031	-0.693464
F	0.3455855688063006 0.3185428712144351 0.3780957164400031	-0.693465
F	0.1544144311936995 0.1814571557855636 0.3780957164400031	-0.693465
F	0.6814571287855650 0.6544143771937020 0.1219042835599969	-0.693465
F	0.8185428712144350 0.8455856228062980 0.1219042835599969	-0.693465
F	0.6544143771937020 0.8185428712144350 0.1219042835599969	-0.693464
F	0.8455856228062980 0.6814571287855650 0.1219042835599969	-0.693466
F	0.6814571287855650 0.8455856228062980 0.6219042515599942	-0.693464
F	0.8185428712144350 0.6544143771937020 0.6219042515599942	-0.693465
F	0.6544143771937020 0.6814571287855650 0.6219042515599942	-0.693465
F	0.8455856228062980 0.8185428712144350 0.6219042515599942	-0.693465
F	0.3185428712144351 0.3455855688063006 0.8780957484400058	-0.693465
F	0.1814571557855636 0.1544144311936995 0.8780957484400058	-0.693465
F	0.3455855688063006 0.1814571557855636 0.8780957484400058	-0.693466
F	0.1544144311936995 0.3185428712144351 0.8780957484400058	-0.693464
F	0.2500000000000000 0.2500000000000000 0.2540273352658795	-0.618922
F	0.2500000000000000 0.2500000000000000 0.5023729219986310	-0.620155
F	0.7500000000000000 0.7500000000000000 0.2459726807341220	-0.618922
F	0.7500000000000000 0.7500000000000000 0.9976270850013731	-0.620155
F	0.7500000000000000 0.7500000000000000 0.7459726327341181	-0.618922
F	0.7500000000000000 0.7500000000000000 0.4976271100013715	-0.620155
F	0.2500000000000000 0.2500000000000000 0.7540273672658819	-0.618922
F	0.2500000000000000 0.2500000000000000 0.0023728899986284	-0.620155
Co	0.2500000000000000 0.2500000000000000 0.1283128195277134	0.604619
Co	0.7500000000000000 0.7500000000000000 0.3716871964722880	0.604619
Co	0.7500000000000000 0.7500000000000000 0.8716871654722891	0.604621
Co	0.2500000000000000 0.2500000000000000 0.6283128345277110	0.604621
Zr	0.2500000000000000 0.2500000000000000 0.3781797581224348	2.478517
Zr	0.7500000000000000 0.7500000000000000 0.1218202498775659	2.478517
Zr	0.7500000000000000 0.7500000000000000 0.6218202108775661	2.478517
Zr	0.2500000000000000 0.2500000000000000 0.8781797891224339	2.478517
	  	
