#======================================================================

# CRYSTAL DATA

#----------------------------------------------------------------------

data_VESTA_phase_1


_pd_phase_name                         ZrFSIX_6_Cu_i
_cell_length_a                         17.55360
_cell_length_b                         17.55360
_cell_length_c                         16.61000
_cell_angle_alpha                      90
_cell_angle_beta                       90
_cell_angle_gamma                      90
_symmetry_space_group_name_H-M         P 1
_symmetry_Int_Tables_number            1

loop_
_symmetry_equiv_pos_as_xyz
   x, y, z

loop_
   _atom_site_label
   _atom_site_fract_x
   _atom_site_fract_y
   _atom_site_fract_z
   _atom_site_charge
N	0.2439531375521212 0.1344747126278285 0.1282474142208539	-0.234124
N	0.2560468624478790 0.3655253013721727 0.1282474142208539	-0.234123
N	0.3655253013721727 0.2439531375521212 0.1282474142208539	-0.234123
N	0.1344747126278285 0.2560468624478790 0.1282474142208539	-0.234123
N	0.7560468354478802 0.6344747256278332 0.3717525707791484	-0.234111
N	0.7439531645521198 0.8655252743721668 0.3717525707791484	-0.234110
N	0.6344747256278332 0.7439531645521198 0.3717525707791484	-0.234111
N	0.8655252743721668 0.7560468354478802 0.3717525707791484	-0.234111
N	0.7560468354478802 0.8655252743721668 0.8717525707791484	-0.234123
N	0.7439531645521198 0.6344747256278332 0.8717525707791484	-0.234124
N	0.6344747256278332 0.7560468354478802 0.8717525707791484	-0.234124
N	0.8655252743721668 0.7439531645521198 0.8717525707791484	-0.234124
N	0.2439531375521212 0.3655253013721727 0.6282474292208516	-0.234123
N	0.2560468624478790 0.1344747126278285 0.6282474292208516	-0.234125
N	0.3655253013721727 0.2560468624478790 0.6282474292208516	-0.234124
N	0.1344747126278285 0.2439531375521212 0.6282474292208516	-0.234124
C	0.2020988353754344 0.0979781644305494 0.1841675062610811	0.101220
C	0.1937895865866730 0.0193421116019497 0.1837474317400841	-0.174667
C	0.2319018379471310 0.9760813134279995 0.1252350558709288	0.114981
C	0.2764278569948012 0.0149884258194782 0.0684133962535322	-0.172268
C	0.2801880860598002 0.0939507818706335 0.0710843194267658	0.104781
C	0.2258713128474993 0.8924169152406483 0.1238962744228372	0.060128
C	0.2910660101781311 0.8481199432679700 0.1207975582007789	-0.174642
C	0.2868002268083478 0.7677744133345126 0.1218148234144096	0.085128
C	0.1469888919117817 0.7786747048960403 0.1244130544395958	-0.124668
C	0.1531609091021404 0.8567917841325231 0.1268157328345730	-0.135068
C	0.2979011246245692 0.4020218485694481 0.1841675062610811	0.101219
C	0.3062103734133236 0.4806578693980523 0.1837474317400841	-0.174666
C	0.2680981620528690 0.5239186865720005 0.1252350558709288	0.114983
C	0.2235721560051963 0.4850115711805181 0.0684133962535322	-0.172269
C	0.2198119279402011 0.4060492251293708 0.0710843194267658	0.104779
C	0.2741286871525007 0.6075830847593517 0.1238962744228372	0.060128
C	0.2089340308218686 0.6518800567320300 0.1207975582007789	-0.174640
C	0.2131997461916537 0.7322255866654874 0.1218148234144096	0.085129
C	0.3530110940882171 0.7213252951039597 0.1244130544395958	-0.124668
C	0.3468390908978597 0.6432082158674769 0.1268157328345730	-0.135067
C	0.4020218485694481 0.2020988353754344 0.1841675062610811	0.101220
C	0.4806578693980523 0.1937895865866730 0.1837474317400841	-0.174666
C	0.5239186865720005 0.2319018379471310 0.1252350558709288	0.114981
C	0.4850115711805181 0.2764278569948012 0.0684133962535322	-0.172267
C	0.4060492251293708 0.2801880860598002 0.0710843194267658	0.104780
C	0.6075830847593517 0.2258713128474993 0.1238962744228372	0.060128
C	0.6518800567320300 0.2910660101781311 0.1207975582007789	-0.174640
C	0.7322255866654874 0.2868002268083478 0.1218148234144096	0.085128
C	0.7213252951039597 0.1469888919117817 0.1244130544395958	-0.124667
C	0.6432082158674769 0.1531609091021404 0.1268157328345730	-0.135067
C	0.0979781644305494 0.2979011246245692 0.1841675062610811	0.101220
C	0.0193421116019497 0.3062103734133236 0.1837474317400841	-0.174665
C	0.9760813134279995 0.2680981620528690 0.1252350558709288	0.114983
C	0.0149884258194782 0.2235721560051963 0.0684133962535322	-0.172269
C	0.0939507818706335 0.2198119279402011 0.0710843194267658	0.104781
C	0.8924169152406483 0.2741286871525007 0.1238962744228372	0.060128
C	0.8481199432679700 0.2089340308218686 0.1207975582007789	-0.174642
C	0.7677744133345126 0.2131997461916537 0.1218148234144096	0.085129
C	0.7786747048960403 0.3530110940882171 0.1244130544395958	-0.124668
C	0.8567917841325231 0.3468390908978597 0.1268157328345730	-0.135068
C	0.7979011776245634 0.5979781514305519 0.3158325097389202	0.101216
C	0.8062104264133245 0.5193420766019433 0.3162525372599170	-0.174664
C	0.7680981620528691 0.4760813134279995 0.3747649121290685	0.114982
C	0.7235721160052005 0.5149884828194790 0.4315866077464683	-0.172269
C	0.7198118879401979 0.5939508288706337 0.4289157205732307	0.104779
C	0.7741287671525005 0.3924169682406561 0.3761037175771621	0.060127
C	0.7089340168218673 0.3481198902679691 0.3792024337992205	-0.174640
C	0.7131997731916523 0.2677743333345134 0.3781851765855905	0.085128
C	0.8530111210882230 0.2786746778960418 0.3755869295604028	-0.124667
C	0.8468390378978594 0.3567917581325208 0.3731842991654296	-0.135068
C	0.7020988223754366 0.9020218485694481 0.3158325097389202	0.101213
C	0.6937895735866755 0.9806578693980522 0.3162525372599170	-0.174664
C	0.7319018379471309 0.0239186925720010 0.3747649121290685	0.114983
C	0.7764278839947995 0.9850115711805184 0.4315866077464683	-0.172268
C	0.7801881120598021 0.9060492781293716 0.4289157205732307	0.104778
C	0.7258712328474995 0.1075830587593424 0.3761037175771621	0.060127
C	0.7910659831781327 0.1518800967320263 0.3792024337992205	-0.174640
C	0.7868002268083477 0.2322256396654881 0.3781851765855905	0.085129
C	0.6469888789117770 0.2213253091039607 0.3755869295604028	-0.124668
C	0.6531609621021406 0.1432082158674768 0.3731842991654296	-0.135066
C	0.5979781514305519 0.7020988223754366 0.3158325097389202	0.101216
C	0.5193420766019433 0.6937895735866755 0.3162525372599170	-0.174665
C	0.4760813134279995 0.7319018379471309 0.3747649121290685	0.114983
C	0.5149884828194790 0.7764278839947995 0.4315866077464683	-0.172267
C	0.5939508288706337 0.7801881120598021 0.4289157205732307	0.104779
C	0.3924169682406561 0.7258712328474995 0.3761037175771621	0.060127
C	0.3481198902679691 0.7910659831781327 0.3792024337992205	-0.174641
C	0.2677743333345134 0.7868002268083477 0.3781851765855905	0.085128
C	0.2786746778960418 0.6469888789117770 0.3755869295604028	-0.124667
C	0.3567917581325208 0.6531609621021406 0.3731842991654296	-0.135068
C	0.9020218485694481 0.7979011776245634 0.3158325097389202	0.101214
C	0.9806578693980522 0.8062104264133245 0.3162525372599170	-0.174662
C	0.0239186925720010 0.7680981620528691 0.3747649121290685	0.114982
C	0.9850115711805184 0.7235721160052005 0.4315866077464683	-0.172268
C	0.9060492781293716 0.7198118879401979 0.4289157205732307	0.104779
C	0.1075830587593425 0.7741287671525005 0.3761037175771621	0.060128
C	0.1518800967320263 0.7089340168218673 0.3792024337992205	-0.174640
C	0.2322256396654881 0.7131997731916523 0.3781851765855905	0.085129
C	0.2213253091039607 0.8530111210882230 0.3755869295604028	-0.124668
C	0.1432082158674768 0.8468390378978594 0.3731842991654296	-0.135067
C	0.7979011776245634 0.9020218485694481 0.8158324777389175	0.101219
C	0.8062104264133245 0.9806578693980522 0.8162526002599185	-0.174665
C	0.7680981620528691 0.0239186925720010 0.8747649761290669	0.114982
C	0.7235721160052005 0.9850115711805184 0.9315865767464692	-0.172269
C	0.7198118879401979 0.9060492781293716 0.9289156885732274	0.104779
C	0.7741287671525005 0.1075830587593424 0.8761037175771622	0.060128
C	0.7089340168218673 0.1518800967320263 0.8792024657992231	-0.174639
C	0.7131997731916523 0.2322256396654881 0.8781852085855862	0.085128
C	0.8530111210882230 0.2213253091039607 0.8755869925604051	-0.124668
C	0.8468390378978594 0.1432082158674768 0.8731843311654253	-0.135067
C	0.7020988223754366 0.5979781514305519 0.8158324777389175	0.101221
C	0.6937895735866755 0.5193420766019433 0.8162526002599185	-0.174666
C	0.7319018379471309 0.4760813134279995 0.8747649761290669	0.114981
C	0.7764278839947995 0.5149884828194790 0.9315865767464692	-0.172268
C	0.7801881120598021 0.5939508288706337 0.9289156885732274	0.104781
C	0.7258712328474995 0.3924169682406561 0.8761037175771622	0.060128
C	0.7910659831781327 0.3481198902679691 0.8792024657992231	-0.174641
C	0.7868002268083477 0.2677743333345134 0.8781852085855862	0.085129
C	0.6469888789117770 0.2786746778960418 0.8755869925604051	-0.124667
C	0.6531609621021406 0.3567917581325208 0.8731843311654253	-0.135068
C	0.5979781514305519 0.7979011776245634 0.8158324777389175	0.101220
C	0.5193420766019433 0.8062104264133245 0.8162526002599185	-0.174665
C	0.4760813134279995 0.7680981620528691 0.8747649761290669	0.114982
C	0.5149884828194790 0.7235721160052005 0.9315865767464692	-0.172269
C	0.5939508288706337 0.7198118879401979 0.9289156885732274	0.104781
C	0.3924169682406561 0.7741287671525005 0.8761037175771622	0.060127
C	0.3481198902679691 0.7089340168218673 0.8792024657992231	-0.174641
C	0.2677743333345134 0.7131997731916523 0.8781852085855862	0.085128
C	0.2786746778960418 0.8530111210882230 0.8755869925604051	-0.124668
C	0.3567917581325208 0.8468390378978594 0.8731843311654253	-0.135068
C	0.9020218485694481 0.7020988223754366 0.8158324777389175	0.101220
C	0.9806578693980522 0.6937895735866755 0.8162526002599185	-0.174666
C	0.0239186925720010 0.7319018379471309 0.8747649761290669	0.114981
C	0.9850115711805184 0.7764278839947995 0.9315865767464692	-0.172267
C	0.9060492781293716 0.7801881120598021 0.9289156885732274	0.104780
C	0.1075830587593424 0.7258712328474995 0.8761037175771622	0.060128
C	0.1518800967320263 0.7910659831781327 0.8792024657992231	-0.174640
C	0.2322256396654881 0.7868002268083477 0.8781852085855862	0.085129
C	0.2213253091039607 0.6469888789117770 0.8755869925604051	-0.124666
C	0.1432082158674768 0.6531609621021406 0.8731843311654253	-0.135068
C	0.2020988353754344 0.4020218485694481 0.6841675222610825	0.101218
C	0.1937895865866730 0.4806578693980523 0.6837473997400815	-0.174666
C	0.2319018379471310 0.5239186865720005 0.6252350238709331	0.114982
C	0.2764278569948012 0.4850115711805181 0.5684134232535308	-0.172268
C	0.2801880860598002 0.4060492251293708 0.5710843114267726	0.104780
C	0.2258713128474993 0.6075830847593517 0.6238962824228378	0.060128
C	0.2910660101781311 0.6518800567320300 0.6207975342007769	-0.174641
C	0.2868002268083478 0.7322255866654874 0.6218147914144138	0.085128
C	0.1469888919117817 0.7213252951039597 0.6244130074395949	-0.124667
C	0.1531609091021404 0.6432082158674769 0.6268156688345747	-0.135066
C	0.2979011246245692 0.0979781644305494 0.6841675222610825	0.101221
C	0.3062103734133236 0.0193421116019497 0.6837473997400815	-0.174666
C	0.2680981620528690 0.9760813134279995 0.6252350238709331	0.114981
C	0.2235721560051963 0.0149884258194782 0.5684134232535308	-0.172269
C	0.2198119279402011 0.0939507818706335 0.5710843114267726	0.104781
C	0.2741286871525007 0.8924169152406483 0.6238962824228378	0.060128
C	0.2089340308218686 0.8481199432679700 0.6207975342007769	-0.174641
C	0.2131997461916537 0.7677744133345126 0.6218147914144138	0.085129
C	0.3530110940882171 0.7786747048960403 0.6244130074395949	-0.124666
C	0.3468390908978597 0.8567917841325231 0.6268156688345747	-0.135069
C	0.4020218485694481 0.2979011246245692 0.6841675222610825	0.101219
C	0.4806578693980523 0.3062103734133236 0.6837473997400815	-0.174664
C	0.5239186865720005 0.2680981620528690 0.6252350238709331	0.114981
C	0.4850115711805181 0.2235721560051963 0.5684134232535308	-0.172268
C	0.4060492251293708 0.2198119279402011 0.5710843114267726	0.104781
C	0.6075830847593517 0.2741286871525007 0.6238962824228378	0.060129
C	0.6518800567320300 0.2089340308218686 0.6207975342007769	-0.174641
C	0.7322255866654874 0.2131997461916537 0.6218147914144138	0.085129
C	0.7213252951039597 0.3530110940882171 0.6244130074395949	-0.124667
C	0.6432082158674769 0.3468390908978597 0.6268156688345747	-0.135067
C	0.0979781644305494 0.2020988353754344 0.6841675222610825	0.101221
C	0.0193421116019497 0.1937895865866730 0.6837473997400815	-0.174667
C	0.9760813134279995 0.2319018379471310 0.6252350238709331	0.114982
C	0.0149884258194782 0.2764278569948012 0.5684134232535308	-0.172267
C	0.0939507818706335 0.2801880860598002 0.5710843114267726	0.104781
C	0.8924169152406483 0.2258713128474993 0.6238962824228378	0.060128
C	0.8481199432679700 0.2910660101781311 0.6207975342007769	-0.174641
C	0.7677744133345126 0.2868002268083478 0.6218147914144138	0.085129
C	0.7786747048960403 0.1469888919117817 0.6244130074395949	-0.124666
C	0.8567917841325231 0.1531609091021404 0.6268156688345747	-0.135069
H	0.1758697255995433 0.1330791255583040 0.2307233608338190	0.102606
H	0.1596152306693041 0.9919041210703814 0.2302937302842075	0.119016
H	0.3062144755012823 0.9841527218785423 0.0208976683274110	0.119301
H	0.3117878390499476 0.1262329654076083 0.0259811203991295	0.100505
H	0.3470582282043269 0.8750815912008068 0.1201186062001268	0.109527
H	0.0910361383550472 0.7515025438475549 0.1250390972065038	0.111850
H	0.1023207280291098 0.8925503536665156 0.1290301672369087	0.103187
H	0.3241302474004581 0.3669209014417015 0.2307233608338190	0.102605
H	0.3403848093306922 0.5080958789296186 0.2302937302842075	0.119015
H	0.1937855374987151 0.5158472781214577 0.0208976683274110	0.119302
H	0.1882121609500524 0.3737670345923917 0.0259811203991295	0.100504
H	0.1529417857956742 0.6249184087991932 0.1201186062001268	0.109527
H	0.4089638546449488 0.7484974561524451 0.1250390972065038	0.111851
H	0.3976792849708948 0.6074496463334844 0.1290301672369087	0.103188
H	0.3669209014417015 0.1758697255995433 0.2307233608338190	0.102605
H	0.5080958789296186 0.1596152306693041 0.2302937302842075	0.119017
H	0.5158472781214577 0.3062144755012823 0.0208976683274110	0.119302
H	0.3737670345923917 0.3117878390499476 0.0259811203991295	0.100504
H	0.6249184087991932 0.3470582282043269 0.1201186062001268	0.109529
H	0.7484974561524451 0.0910361383550472 0.1250390972065038	0.111850
H	0.6074496463334844 0.1023207280291098 0.1290301672369087	0.103189
H	0.1330791255583040 0.3241302474004581 0.2307233608338190	0.102606
H	0.9919041210703814 0.3403848093306922 0.2302937302842075	0.119015
H	0.9841527218785423 0.1937855374987151 0.0208976683274110	0.119302
H	0.1262329654076083 0.1882121609500524 0.0259811203991295	0.100505
H	0.8750815912008068 0.1529417857956742 0.1201186062001268	0.109527
H	0.7515025438475549 0.4089638546449488 0.1250390972065038	0.111852
H	0.8925503536665156 0.3976792849708948 0.1290301672369087	0.103189
H	0.8241302474004581 0.6330791525583030 0.2692766551661824	0.102602
H	0.8403847283306962 0.4919041750703785 0.2697062697157926	0.119015
H	0.6937855244987178 0.4841527218785426 0.4791023336725892	0.119301
H	0.6882122139500533 0.6262329924076074 0.4740188776008704	0.100504
H	0.6529417717956730 0.3750815372008094 0.3798814017998739	0.109527
H	0.9089638016449479 0.2515025708475605 0.3749608947934956	0.111851
H	0.8976792579708962 0.3925503796665108 0.3709698407630921	0.103189
H	0.6758697525995419 0.8669208474416970 0.2692766551661824	0.102601
H	0.6596152716693038 0.0080958409296156 0.2697062697157926	0.119015
H	0.8062144755012822 0.0158472771214538 0.4791023336725892	0.119301
H	0.8117877860499467 0.8737670075923926 0.4740188776008704	0.100504
H	0.8470582282043270 0.1249184757991952 0.3798814017998739	0.109529
H	0.5910361453550512 0.2484974021524408 0.3749608947934956	0.111849
H	0.6023207420291038 0.1074496333334867 0.3709698407630921	0.103186
H	0.6330791525583030 0.6758697525995419 0.2692766551661824	0.102602
H	0.4919041750703785 0.6596152716693038 0.2697062697157926	0.119016
H	0.4841527218785426 0.8062144755012822 0.4791023336725892	0.119301
H	0.6262329924076074 0.8117877860499467 0.4740188776008704	0.100504
H	0.3750815372008094 0.8470582282043270 0.3798814017998739	0.109530
H	0.2515025708475605 0.5910361453550512 0.3749608947934956	0.111849
H	0.3925503796665107 0.6023207420291038 0.3709698407630921	0.103188
H	0.8669208474416970 0.8241302474004581 0.2692766551661824	0.102601
H	0.0080958409296156 0.8403847283306962 0.2697062697157926	0.119014
H	0.0158472771214538 0.6937855244987178 0.4791023336725892	0.119302
H	0.8737670075923926 0.6882122139500533 0.4740188776008704	0.100503
H	0.1249184757991952 0.6529417717956730 0.3798814017998739	0.109529
H	0.2484974021524408 0.9089638016449479 0.3749608947934956	0.111850
H	0.1074496333334867 0.8976792579708962 0.3709698407630921	0.103189
H	0.8241302474004581 0.8669208474416970 0.7692766241661835	0.102605
H	0.8403847283306962 0.0080958409296156 0.7697062847157975	0.119016
H	0.6937855244987178 0.0158472771214538 0.9791023646725885	0.119301
H	0.6882122139500533 0.8737670075923926 0.9740188136008723	0.100504
H	0.6529417717956730 0.1249184757991952 0.8798813697998712	0.109527
H	0.9089638016449479 0.2484974021524408 0.8749608317934938	0.111851
H	0.8976792579708962 0.1074496333334867 0.8709698087630896	0.103189
H	0.6758697525995419 0.6330791525583030 0.7692766241661835	0.102606
H	0.6596152716693038 0.4919041750703785 0.7697062847157975	0.119016
H	0.8062144755012822 0.4841527218785426 0.9791023646725885	0.119301
H	0.8117877860499467 0.6262329924076074 0.9740188136008723	0.100505
H	0.8470582282043270 0.3750815372008094 0.8798813697998712	0.109527
H	0.5910361453550512 0.2515025708475605 0.8749608317934938	0.111849
H	0.6023207420291038 0.3925503796665107 0.8709698087630896	0.103188
H	0.6330791525583030 0.8241302474004581 0.7692766241661835	0.102606
H	0.4919041750703785 0.8403847283306962 0.7697062847157975	0.119015
H	0.4841527218785426 0.6937855244987178 0.9791023646725885	0.119301
H	0.6262329924076074 0.6882122139500533 0.9740188136008723	0.100505
H	0.3750815372008094 0.6529417717956730 0.8798813697998712	0.109528
H	0.2515025708475605 0.9089638016449479 0.8749608317934938	0.111851
H	0.3925503796665107 0.8976792579708962 0.8709698087630896	0.103189
H	0.8669208474416970 0.6758697525995419 0.7692766241661835	0.102605
H	0.0080958409296156 0.6596152716693038 0.7697062847157975	0.119017
H	0.0158472771214538 0.8062144755012822 0.9791023646725885	0.119301
H	0.8737670075923926 0.8117877860499467 0.9740188136008723	0.100504
H	0.1249184757991952 0.8470582282043270 0.8798813697998712	0.109529
H	0.2484974021524408 0.5910361453550512 0.8749608317934938	0.111849
H	0.1074496333334867 0.6023207420291038 0.8709698087630896	0.103189
H	0.1758697255995433 0.3669209014417015 0.7307233758338165	0.102605
H	0.1596152306693041 0.5080958789296186 0.7302937152842025	0.119016
H	0.3062144755012823 0.5158472781214577 0.5208976663274105	0.119301
H	0.3117878390499476 0.3737670345923917 0.5259811223991295	0.100504
H	0.3470582282043269 0.6249184087991932 0.6201186302001288	0.109530
H	0.0910361383550472 0.7484974561524451 0.6250391682065062	0.111848
H	0.1023207280291098 0.6074496463334844 0.6290301912369104	0.103187
H	0.3241302474004581 0.1330791255583040 0.7307233758338165	0.102606
H	0.3403848093306922 0.9919041210703814 0.7302937152842025	0.119016
H	0.1937855374987151 0.9841527218785423 0.5208976663274105	0.119302
H	0.1882121609500524 0.1262329654076083 0.5259811223991295	0.100505
H	0.1529417857956742 0.8750815912008068 0.6201186302001288	0.109527
H	0.4089638546449488 0.7515025438475549 0.6250391682065062	0.111849
H	0.3976792849708948 0.8925503536665156 0.6290301912369104	0.103190
H	0.3669209014417015 0.3241302474004581 0.7307233758338165	0.102605
H	0.5080958789296186 0.3403848093306922 0.7302937152842025	0.119015
H	0.5158472781214577 0.1937855374987151 0.5208976663274105	0.119302
H	0.3737670345923917 0.1882121609500524 0.5259811223991295	0.100504
H	0.6249184087991932 0.1529417857956742 0.6201186302001288	0.109529
H	0.7484974561524451 0.4089638546449488 0.6250391682065062	0.111850
H	0.6074496463334844 0.3976792849708948 0.6290301912369104	0.103190
H	0.1330791255583040 0.1758697255995433 0.7307233758338165	0.102606
H	0.9919041210703814 0.1596152306693041 0.7302937152842025	0.119017
H	0.9841527218785423 0.3062144755012823 0.5208976663274105	0.119301
H	0.1262329654076083 0.3117878390499476 0.5259811223991295	0.100505
H	0.8750815912008068 0.3470582282043269 0.6201186302001288	0.109530
H	0.7515025438475549 0.0910361383550472 0.6250391682065062	0.111848
H	0.8925503536665156 0.1023207280291098 0.6290301912369104	0.103189
F	0.3203513285585552 0.1569149584656306 0.3782664085872887	-0.699898
F	0.1796486984414437 0.3430850415343693 0.3782664085872887	-0.699897
F	0.3430850415343693 0.3203513285585552 0.3782664085872887	-0.699897
F	0.1569149584656306 0.1796486984414437 0.3782664085872887	-0.699897
F	0.6796486714414451 0.6569149044656335 0.1217335914127114	-0.699898
F	0.8203513285585549 0.8430850955343665 0.1217335914127114	-0.699898
F	0.6569149044656335 0.8203513285585549 0.1217335914127114	-0.699896
F	0.8430850955343665 0.6796486714414451 0.1217335914127114	-0.699899
F	0.6796486714414451 0.8430850955343665 0.6217335594127089	-0.699897
F	0.8203513285585549 0.6569149044656335 0.6217335594127089	-0.699898
F	0.6569149044656335 0.6796486714414451 0.6217335594127089	-0.699897
F	0.8430850955343665 0.8203513285585549 0.6217335594127089	-0.699897
F	0.3203513285585552 0.3430850415343693 0.8782664405872911	-0.699897
F	0.1796486984414437 0.1569149584656306 0.8782664405872911	-0.699897
F	0.3430850415343693 0.1796486984414437 0.8782664405872911	-0.699899
F	0.1569149584656306 0.3203513285585552 0.8782664405872911	-0.699896
F	0.2500000000000000 0.2500000000000000 0.2555549863198220	-0.656470
F	0.2500000000000000 0.2500000000000000 0.5009949524584153	-0.657327
F	0.7500000000000000 0.7500000000000000 0.2444450296801795	-0.656473
F	0.7500000000000000 0.7500000000000000 0.9990050545415888	-0.657327
F	0.7500000000000000 0.7500000000000000 0.7444449816801755	-0.656471
F	0.7500000000000000 0.7500000000000000 0.4990050795415873	-0.657328
F	0.2500000000000000 0.2500000000000000 0.7555550183198245	-0.656471
F	0.2500000000000000 0.2500000000000000 0.0009949204584127	-0.657327
Cu	0.2500000000000000 0.2500000000000000 0.1284926167114137	0.748202
Cu	0.7500000000000000 0.7500000000000000 0.3715073992885877	0.748198
Cu	0.7500000000000000 0.7500000000000000 0.8715073682885884	0.748203
Cu	0.2500000000000000 0.2500000000000000 0.6284926317114116	0.748204
Zr	0.2500000000000000 0.2500000000000000 0.3783138590075408	2.497987
Zr	0.7500000000000000 0.7500000000000000 0.1216861489924598	2.497988
Zr	0.7500000000000000 0.7500000000000000 0.6216861099924601	2.497988
Zr	0.2500000000000000 0.2500000000000000 0.8783138900075399	2.497987
	  	
