#======================================================================

# CRYSTAL DATA

#----------------------------------------------------------------------

data_VESTA_phase_1


_pd_phase_name                         ZrFSIX_3_Co
_cell_length_a                         14.24373
_cell_length_b                         14.24373
_cell_length_c                         8.20937
_cell_angle_alpha                      90
_cell_angle_beta                       90
_cell_angle_gamma                      90
_symmetry_space_group_name_H-M         P 1
_symmetry_Int_Tables_number            1

loop_
_symmetry_equiv_pos_as_xyz
   x, y, z

loop_
   _atom_site_label
   _atom_site_fract_x
   _atom_site_fract_y
   _atom_site_fract_z
   _atom_site_charge
C	0.2718260458404602 0.4510665432499694 0.6347046850773588	0.067872
C	0.2281739541595397 0.0489334607500310 0.6347046850773588	0.067873
C	0.2281739541595397 0.4510665432499694 0.3652952829226384	0.067878
C	0.2718260458404602 0.0489334607500310 0.3652952829226383	0.067879
C	0.0489334607500310 0.2718260458404602 0.3652952829226384	0.067883
C	0.4510665432499694 0.2281739541595397 0.3652952829226383	0.067882
C	0.4510665432499694 0.2718260458404602 0.6347046850773588	0.067889
C	0.0489334607500310 0.2281739541595397 0.6347046850773588	0.067889
C	0.9510664752499706 0.2281739541595397 0.6347046850773588	0.067952
C	0.5489335247500294 0.2718260458404602 0.6347046850773588	0.067953
C	0.5489335247500294 0.2281739541595397 0.3652952829226383	0.067958
C	0.9510664752499706 0.2718260458404602 0.3652952829226384	0.067958
C	0.7281739711595377 0.0489334607500310 0.3652952829226383	0.067884
C	0.7718260288404623 0.4510665432499694 0.3652952829226384	0.067884
C	0.7718260288404623 0.0489334607500310 0.6347046850773588	0.067891
C	0.7281739711595377 0.4510665432499694 0.6347046850773588	0.067890
C	0.4510665432499694 0.7281739711595377 0.6347046850773588	0.067876
C	0.0489334607500310 0.7718260288404623 0.6347046850773588	0.067877
C	0.0489334607500310 0.7281739711595377 0.3652952829226383	0.067883
C	0.4510665432499694 0.7718260288404623 0.3652952829226384	0.067882
C	0.2281739541595397 0.5489335247500294 0.3652952829226384	0.067962
C	0.2718260458404602 0.9510664752499706 0.3652952829226384	0.067961
C	0.2718260458404602 0.5489335247500294 0.6347046850773588	0.067967
C	0.2281739541595397 0.9510664752499706 0.6347046850773588	0.067966
C	0.7718260288404623 0.9510664752499706 0.6347046850773588	0.067955
C	0.7281739711595377 0.5489335247500294 0.6347046850773588	0.067955
C	0.7281739711595377 0.9510664752499706 0.3652952829226384	0.067959
C	0.7718260288404623 0.5489335247500294 0.3652952829226383	0.067960
C	0.5489335247500294 0.7718260288404623 0.3652952829226384	0.067964
C	0.9510664752499706 0.7281739711595377 0.3652952829226384	0.067963
C	0.9510664752499706 0.7718260288404623 0.6347046850773588	0.067968
C	0.5489335247500294 0.7281739711595377 0.6347046850773588	0.067969
H	0.2897494401307450 0.4128559770441154 0.7455217461838466	0.105295
H	0.2102505258692522 0.0871440229558845 0.7455217461838466	0.105295
H	0.2102505258692522 0.4128559770441154 0.2544782228161547	0.105295
H	0.2897494401307450 0.0871440229558845 0.2544782228161547	0.105295
H	0.0871440229558845 0.2897494401307450 0.2544782228161547	0.105294
H	0.4128559770441154 0.2102505258692522 0.2544782228161547	0.105294
H	0.4128559770441154 0.2897494401307450 0.7455217461838466	0.105293
H	0.0871440229558845 0.2102505258692522 0.7455217461838466	0.105293
H	0.9128560450441214 0.2102505258692522 0.7455217461838466	0.105290
H	0.5871439549558786 0.2897494401307450 0.7455217461838466	0.105289
H	0.5871439549558786 0.2102505258692522 0.2544782228161547	0.105290
H	0.9128560450441214 0.2897494401307450 0.2544782228161547	0.105289
H	0.7102504918692638 0.0871440229558845 0.2544782228161547	0.105291
H	0.7897495081307362 0.4128559770441154 0.2544782228161547	0.105290
H	0.7897495081307362 0.0871440229558845 0.7455217461838466	0.105290
H	0.7102504918692638 0.4128559770441154 0.7455217461838466	0.105290
H	0.4128559770441154 0.7102504918692638 0.7455217461838466	0.105292
H	0.0871440229558845 0.7897495081307362 0.7455217461838466	0.105292
H	0.0871440229558845 0.7102504918692638 0.2544782228161547	0.105292
H	0.4128559770441154 0.7897495081307362 0.2544782228161547	0.105292
H	0.2102505258692522 0.5871439549558786 0.2544782228161547	0.105288
H	0.2897494401307450 0.9128560450441214 0.2544782228161547	0.105288
H	0.2897494401307450 0.5871439549558786 0.7455217461838466	0.105287
H	0.2102505258692522 0.9128560450441214 0.7455217461838466	0.105287
H	0.7897495081307362 0.9128560450441214 0.7455217461838466	0.105286
H	0.7102504918692638 0.5871439549558786 0.7455217461838466	0.105286
H	0.7102504918692638 0.9128560450441214 0.2544782228161547	0.105286
H	0.7897495081307362 0.5871439549558786 0.2544782228161547	0.105286
H	0.5871439549558786 0.7897495081307362 0.2544782228161547	0.105285
H	0.9128560450441214 0.7102504918692638 0.2544782228161547	0.105285
H	0.9128560450441214 0.7897495081307362 0.7455217461838466	0.105284
H	0.5871439549558786 0.7102504918692638 0.7455217461838466	0.105284
Co	0.2500000000000000 0.2500000000000000 0.5000000000000000	0.836152
Co	0.7500000340000028 0.2500000000000000 0.5000000000000000	0.836148
Co	0.2500000000000000 0.7500000340000028 0.5000000000000000	0.836148
Co	0.7500000340000028 0.7500000340000028 0.5000000000000000	0.836144
Zr	0.2500000000000000 0.2500000000000000 0.0000000000000000	2.442271
Zr	0.7500000340000028 0.2500000000000000 0.0000000000000000	2.442257
Zr	0.2500000000000000 0.7500000340000028 0.0000000000000000	2.442257
Zr	0.7500000340000028 0.7500000340000028 0.0000000000000000	2.442244
F	0.2500000000000000 0.2500000000000000 0.7427086656303287	-0.610483
F	0.2500000000000000 0.2500000000000000 0.2572913343696709	-0.610484
F	0.3495653979700314 0.3495653979700314 0.9691250963199372	-0.642522
F	0.1504346020299688 0.1504346020299688 0.9691250963199372	-0.642521
F	0.1504346020299688 0.3495653979700314 0.0308749246800610	-0.642521
F	0.3495653979700314 0.1504346020299688 0.0308749246800611	-0.642521
F	0.7500000340000028 0.2500000000000000 0.7427086656303287	-0.610480
F	0.7500000340000028 0.2500000000000000 0.2572913343696709	-0.610480
F	0.8495654319700336 0.3495653979700314 0.0308749246800611	-0.642523
F	0.6504345680299664 0.1504346020299688 0.0308749246800611	-0.642521
F	0.6504345680299664 0.3495653979700314 0.9691250963199372	-0.642522
F	0.8495654319700336 0.1504346020299688 0.9691250963199372	-0.642522
F	0.2500000000000000 0.7500000340000028 0.7427086656303287	-0.610480
F	0.2500000000000000 0.7500000340000028 0.2572913343696709	-0.610480
F	0.3495653979700314 0.8495654319700336 0.0308749246800611	-0.642523
F	0.1504346020299688 0.6504345680299664 0.0308749246800611	-0.642521
F	0.1504346020299688 0.8495654319700336 0.9691250963199372	-0.642522
F	0.3495653979700314 0.6504345680299664 0.9691250963199372	-0.642522
F	0.7500000340000028 0.7500000340000028 0.7427086656303287	-0.610476
F	0.7500000340000028 0.7500000340000028 0.2572913343696709	-0.610476
F	0.8495654319700336 0.8495654319700336 0.9691250963199372	-0.642523
F	0.6504345680299664 0.6504345680299664 0.9691250963199372	-0.642521
F	0.6504345680299664 0.8495654319700336 0.0308749246800611	-0.642522
F	0.8495654319700336 0.6504345680299664 0.0308749246800611	-0.642522
N	0.4017174455501789 0.2500000000000000 0.5000000000000000	-0.218268
N	0.0982825544498212 0.2500000000000000 0.5000000000000000	-0.218268
N	0.2500000000000000 0.4017174455501789 0.5000000000000000	-0.218264
N	0.2500000000000000 0.0982825544498212 0.5000000000000000	-0.218264
N	0.9017174455501789 0.2500000000000000 0.5000000000000000	-0.218258
N	0.5982825544498211 0.2500000000000000 0.5000000000000000	-0.218257
N	0.7500000340000028 0.4017174455501789 0.5000000000000000	-0.218267
N	0.7500000340000028 0.0982825544498212 0.5000000000000000	-0.218267
N	0.4017174455501789 0.7500000340000028 0.5000000000000000	-0.218266
N	0.0982825544498212 0.7500000340000028 0.5000000000000000	-0.218266
N	0.2500000000000000 0.9017174455501789 0.5000000000000000	-0.218258
N	0.2500000000000000 0.5982825544498211 0.5000000000000000	-0.218258
N	0.9017174455501789 0.7500000340000028 0.5000000000000000	-0.218260
N	0.5982825544498211 0.7500000340000028 0.5000000000000000	-0.218260
N	0.7500000340000028 0.9017174455501789 0.5000000000000000	-0.218257
N	0.7500000340000028 0.5982825544498211 0.5000000000000000	-0.218256
	  	
