#======================================================================

# CRYSTAL DATA

#----------------------------------------------------------------------

data_VESTA_phase_1


_pd_phase_name                         ZrFSIX_5_Zn_i
_cell_length_a                         19.97921
_cell_length_b                         19.97921
_cell_length_c                         16.37891
_cell_angle_alpha                      90
_cell_angle_beta                       90
_cell_angle_gamma                      90
_symmetry_space_group_name_H-M         P 1
_symmetry_Int_Tables_number            1

loop_
_symmetry_equiv_pos_as_xyz
   x, y, z

loop_
   _atom_site_label
   _atom_site_fract_x
   _atom_site_fract_y
   _atom_site_fract_z
   _atom_site_charge
F	0.3269671714791975 0.1829490001328096 0.3510348604813439	-0.686202
F	0.1730328165208018 0.3170509998671904 0.3510348604813439	-0.686206
F	0.3170509998671904 0.3269671714791975 0.3510348604813439	-0.686205
F	0.1829490001328096 0.1730328165208018 0.3510348604813439	-0.686204
F	0.6730328525207976 0.6829490241328113 0.1489651395186561	-0.686203
F	0.8269671474792024 0.8170509758671886 0.1489651395186561	-0.686205
F	0.6829490241328113 0.8269671474792024 0.1489651395186561	-0.686205
F	0.8170509758671887 0.6730328525207976 0.1489651395186561	-0.686203
F	0.6730328525207976 0.8170509758671887 0.6489651715186587	-0.686206
F	0.8269671474792024 0.6829490241328114 0.6489651715186587	-0.686202
F	0.6829490241328114 0.6730328525207976 0.6489651715186587	-0.686204
F	0.8170509758671887 0.8269671474792024 0.6489651715186587	-0.686205
F	0.3269671714791975 0.3170509998671904 0.8510348284813413	-0.686205
F	0.1730328165208018 0.1829490001328096 0.8510348284813413	-0.686203
F	0.3170509998671904 0.1730328165208018 0.8510348284813413	-0.686203
F	0.1829490001328096 0.3269671714791975 0.8510348284813413	-0.686205
F	0.2500000000000000 0.2500000000000000 0.4768916810889428	-0.610016
F	0.2500000000000000 0.2500000000000000 0.2254168263571049	-0.609850
F	0.7500000000000000 0.7500000000000000 0.0231083459110558	-0.610016
F	0.7500000000000000 0.7500000000000000 0.2745831576428939	-0.609850
F	0.7500000000000000 0.7500000000000000 0.5231083499110563	-0.610014
F	0.7500000000000000 0.7500000000000000 0.7745831576428936	-0.609851
F	0.2500000000000000 0.2500000000000000 -0.0231083499110562	-0.610014
F	0.2500000000000000 0.2500000000000000 0.7254168423571064	-0.609851
N	0.3578023395409753 0.2473367219012002 0.6014337471147664	-0.234960
N	0.1421976604590246 0.2526632780987998 0.6014337471147664	-0.234960
N	0.2526632780987998 0.3578023395409753 0.6014337471147664	-0.234961
N	0.2473367219012002 0.1421976604590246 0.6014337471147664	-0.234959
N	0.6421976844590267 0.7473366979011982 0.8985662528852336	-0.234960
N	0.8578023155409733 0.7526633020988018 0.8985662528852336	-0.234960
N	0.7473366979011982 0.8578023155409733 0.8985662528852336	-0.234961
N	0.7526633020988018 0.6421976844590268 0.8985662528852336	-0.234960
N	0.6421976844590268 0.7526633020988018 0.3985662838852324	-0.234958
N	0.8578023155409733 0.7473366979011982 0.3985662838852324	-0.234958
N	0.7473366979011982 0.6421976844590267 0.3985662838852324	-0.234957
N	0.7526633020988018 0.8578023155409733 0.3985662838852324	-0.234959
N	0.3578023395409753 0.2526632780987998 0.1014337471147665	-0.234958
N	0.1421976604590246 0.2473367219012002 0.1014337471147665	-0.234958
N	0.2526632780987998 0.1421976604590246 0.1014337471147665	-0.234957
N	0.2473367219012002 0.3578023395409753 0.1014337471147665	-0.234959
C	0.3909553256256605 0.2184890423582581 0.6637763022418516	0.103573
C	0.4603680461928549 0.2173632371310550 0.6678174424676520	-0.174626
C	0.4981902613787668 0.2471441492883137 0.6054344650598994	0.107957
C	0.4628556719991652 0.2766625811274152 0.5406866865553372	-0.177640
C	0.3933396608207677 0.2757831264269184 0.5407799970684776	0.104747
C	0.5718376015635531 0.2478748925451557 0.6082663706183873	0.052667
C	0.6077422223812141 0.1922428681084932 0.6372789063760292	-0.128859
C	0.6772827415855115 0.1929888017293617 0.6395152153997595	-0.124086
C	0.7131626316137774 0.2497548151291549 0.6141021255137940	0.066304
C	0.6772436737496121 0.3056865219693601 0.5862443236317296	-0.118434
C	0.6077561958368489 0.3045598679863664 0.5826438725497187	-0.125231
C	0.1090446503743446 0.2815109816417438 0.6637763022418516	0.103574
C	0.0396318938071473 0.2826367868689470 0.6678174424676520	-0.174628
C	0.0018097176212350 0.2528558507116865 0.6054344650598994	0.107954
C	0.0371443550008335 0.2233374188725848 0.5406866865553372	-0.177635
C	0.1066603031792293 0.2242168975730835 0.5407799970684776	0.104744
C	0.9281623504364500 0.2521250834548419 0.6082663706183873	0.052667
C	0.8922578256187828 0.3077571668915061 0.6372789063760292	-0.128856
C	0.8227172584144885 0.3070112102706321 0.6395152153997595	-0.124085
C	0.7868373683862226 0.2502451608708433 0.6141021255137940	0.066302
C	0.8227563732503882 0.1943134780306398 0.5862443236317296	-0.118429
C	0.8922439001631519 0.1954401670136327 0.5826438725497187	-0.125231
C	0.2815109816417438 0.3909553256256605 0.6637763022418516	0.103576
C	0.2826367868689470 0.4603680461928549 0.6678174424676520	-0.174628
C	0.2528558507116865 0.4981902613787668 0.6054344650598994	0.107955
C	0.2233374188725848 0.4628556719991652 0.5406866865553372	-0.177637
C	0.2242168975730835 0.3933396608207677 0.5407799970684776	0.104748
C	0.2521250834548419 0.5718376015635531 0.6082663706183873	0.052666
C	0.3077571668915061 0.6077422223812141 0.6372789063760292	-0.128859
C	0.3070112102706321 0.6772827415855115 0.6395152153997595	-0.124087
C	0.2502451608708433 0.7131626316137774 0.6141021255137940	0.066302
C	0.1943134780306398 0.6772436737496121 0.5862443236317296	-0.118433
C	0.1954401670136327 0.6077561958368489 0.5826438725497187	-0.125232
C	0.2184890423582581 0.1090446503743446 0.6637763022418516	0.103574
C	0.2173632371310550 0.0396318938071473 0.6678174424676520	-0.174626
C	0.2471441492883137 0.0018097176212350 0.6054344650598994	0.107956
C	0.2766625811274152 0.0371443550008335 0.5406866865553372	-0.177637
C	0.2757831264269184 0.1066603031792293 0.5407799970684776	0.104744
C	0.2478748925451557 0.9281623504364500 0.6082663706183873	0.052667
C	0.1922428681084932 0.8922578256187828 0.6372789063760292	-0.128856
C	0.1929888017293617 0.8227172584144885 0.6395152153997595	-0.124085
C	0.2497548151291549 0.7868373683862226 0.6141021255137940	0.066304
C	0.3056865219693601 0.8227563732503882 0.5862443236317296	-0.118430
C	0.3045598679863664 0.8922439001631519 0.5826438725497187	-0.125229
C	0.6090446503743447 0.7184890903582547 0.8362236977581484	0.103572
C	0.5396319058071487 0.7173632611310500 0.8321825575323480	-0.174624
C	0.5018097386212332 0.7471441972883109 0.8945655349401006	0.107955
C	0.5371444240008361 0.7766625331274113 0.9593133134446628	-0.177639
C	0.6066603631792273 0.7757831504269133 0.9592200029315224	0.104745
C	0.4281623984364468 0.7478749645451548 0.8917336293816127	0.052667
C	0.3922577776187862 0.6922428331084937 0.8627210936239708	-0.128856
C	0.3227171864144828 0.6929887657293657 0.8604847846002405	-0.124086
C	0.2868374163862268 0.7497548391291567 0.8858978744862060	0.066303
C	0.3227562782503842 0.8056865219693602 0.9137556763682704	-0.118432
C	0.3922438281631462 0.8045597969863642 0.9173561274502813	-0.125229
C	0.8909553496256553 0.7815109096417453 0.8362236977581484	0.103575
C	0.9603680941928513 0.7826367388689500 0.8321825575323480	-0.174630
C	0.9981903093787636 0.7528558027116891 0.8945655349401006	0.107956
C	0.9628556239991679 0.7233374668725887 0.9593133134446628	-0.177636
C	0.8933396368207727 0.7242168495730867 0.9592200029315224	0.104746
C	0.0718376375635491 0.7521250354548452 0.8917336293816127	0.052666
C	0.1077422103812127 0.8077571668915063 0.8627210936239708	-0.128857
C	0.1772827895855153 0.8070111862706374 0.8604847846002405	-0.124087
C	0.2131625836137733 0.7502451608708433 0.8858978744862060	0.066304
C	0.1772436977496138 0.6943134780306398 0.9137556763682704	-0.118432
C	0.1077561718368538 0.6954401560136355 0.9173561274502813	-0.125233
C	0.7184890903582547 0.8909553496256553 0.8362236977581484	0.103577
C	0.7173632611310500 0.9603680941928513 0.8321825575323480	-0.174626
C	0.7471441972883109 0.9981903093787636 0.8945655349401006	0.107955
C	0.7766625331274113 0.9628556239991679 0.9593133134446628	-0.177639
C	0.7757831504269133 0.8933396368207727 0.9592200029315224	0.104747
C	0.7478749645451548 0.0718376375635491 0.8917336293816127	0.052666
C	0.6922428331084937 0.1077422103812127 0.8627210936239708	-0.128858
C	0.6929887657293657 0.1772827895855153 0.8604847846002405	-0.124085
C	0.7497548391291567 0.2131625836137733 0.8858978744862060	0.066303
C	0.8056865219693602 0.1772436977496138 0.9137556763682704	-0.118431
C	0.8045597969863642 0.1077561718368538 0.9173561274502813	-0.125232
C	0.7815109096417453 0.6090446503743447 0.8362236977581484	0.103572
C	0.7826367388689500 0.5396319058071487 0.8321825575323480	-0.174627
C	0.7528558027116891 0.5018097386212332 0.8945655349401006	0.107956
C	0.7233374668725887 0.5371444240008361 0.9593133134446628	-0.177635
C	0.7242168495730867 0.6066603631792273 0.9592200029315224	0.104746
C	0.7521250354548452 0.4281623984364468 0.8917336293816127	0.052667
C	0.8077571668915063 0.3922577776187862 0.8627210936239708	-0.128855
C	0.8070111862706374 0.3227171864144828 0.8604847846002405	-0.124087
C	0.7502451608708433 0.2868374163862268 0.8858978744862060	0.066303
C	0.6943134780306398 0.3227562782503842 0.9137556763682704	-0.118432
C	0.6954401560136355 0.3922438281631462 0.9173561274502813	-0.125230
C	0.6090446503743447 0.7815109096417453 0.3362237287581470	0.103573
C	0.5396319058071487 0.7826367388689500 0.3321825575323473	-0.174617
C	0.5018097386212332 0.7528558027116891 0.3945655349401006	0.107954
C	0.5371444240008361 0.7233374668725887 0.4593133444446689	-0.177634
C	0.6066603631792273 0.7242168495730867 0.4592200029315228	0.104744
C	0.4281623984364468 0.7521250354548452 0.3917336293816128	0.052667
C	0.3922577776187862 0.8077571668915063 0.3627210626239719	-0.128855
C	0.3227171864144828 0.8070111862706374 0.3604848156002396	-0.124087
C	0.2868374163862268 0.7502451608708433 0.3858977804862054	0.066303
C	0.3227562782503842 0.6943134780306398 0.4137557073682698	-0.118430
C	0.3922438281631462 0.6954401560136355 0.4173561274502815	-0.125229
C	0.8909553496256553 0.7184890903582547 0.3362237287581470	0.103572
C	0.9603680941928513 0.7173632611310500 0.3321825575323473	-0.174615
C	0.9981903093787636 0.7471441972883109 0.3945655349401006	0.107957
C	0.9628556239991679 0.7766625331274113 0.4593133444446689	-0.177639
C	0.8933396368207727 0.7757831504269133 0.4592200029315228	0.104747
C	0.0718376375635491 0.7478749645451548 0.3917336293816128	0.052666
C	0.1077422103812127 0.6922428331084937 0.3627210626239719	-0.128858
C	0.1772827895855153 0.6929887657293657 0.3604848156002396	-0.124087
C	0.2131625836137733 0.7497548391291567 0.3858977804862054	0.066304
C	0.1772436977496138 0.8056865219693602 0.4137557073682698	-0.118434
C	0.1077561718368538 0.8045597969863642 0.4173561274502815	-0.125230
C	0.7184890903582547 0.6090446503743447 0.3362237287581470	0.103572
C	0.7173632611310500 0.5396319058071487 0.3321825575323473	-0.174614
C	0.7471441972883109 0.5018097386212332 0.3945655349401006	0.107955
C	0.7766625331274113 0.5371444240008361 0.4593133444446689	-0.177637
C	0.7757831504269133 0.6066603631792273 0.4592200029315228	0.104744
C	0.7478749645451548 0.4281623984364468 0.3917336293816128	0.052667
C	0.6922428331084937 0.3922577776187862 0.3627210626239719	-0.128854
C	0.6929887657293657 0.3227171864144828 0.3604848156002396	-0.124086
C	0.7497548391291567 0.2868374163862268 0.3858977804862054	0.066306
C	0.8056865219693602 0.3227562782503842 0.4137557073682698	-0.118431
C	0.8045597969863642 0.3922438281631462 0.4173561274502815	-0.125228
C	0.7815109096417453 0.8909553496256553 0.3362237287581470	0.103575
C	0.7826367388689500 0.9603680941928513 0.3321825575323473	-0.174617
C	0.7528558027116891 0.9981903093787636 0.3945655349401006	0.107955
C	0.7233374668725887 0.9628556239991679 0.4593133444446689	-0.177637
C	0.7242168495730867 0.8933396368207727 0.4592200029315228	0.104748
C	0.7521250354548452 0.0718376375635491 0.3917336293816128	0.052666
C	0.8077571668915063 0.1077422103812127 0.3627210626239719	-0.128858
C	0.8070111862706374 0.1772827895855153 0.3604848156002396	-0.124088
C	0.7502451608708433 0.2131625836137733 0.3858977804862054	0.066302
C	0.6943134780306398 0.1772436977496138 0.4137557073682698	-0.118433
C	0.6954401560136355 0.1077561718368538 0.4173561274502815	-0.125231
C	0.3909553256256605 0.2815109816417438 0.1637762872418541	0.103576
C	0.4603680461928549 0.2826367868689470 0.1678174114676535	-0.174629
C	0.4981902613787668 0.2528558507116865 0.1054344650598996	0.107957
C	0.4628556719991652 0.2233374188725848 0.0406866515553380	-0.177635
C	0.3933396608207677 0.2242168975730835 0.0407799890684767	0.104746
C	0.5718376015635531 0.2521250834548419 0.1082663626183866	0.052666
C	0.6077422223812141 0.3077571668915061 0.1372789063760292	-0.128857
C	0.6772827415855115 0.3070112102706321 0.1395151683997591	-0.124088
C	0.7131626316137774 0.2502451608708433 0.1141021965137963	0.066305
C	0.6772436737496121 0.1943134780306398 0.0862443076317279	-0.118432
C	0.6077561958368489 0.1954401670136327 0.0826438875497164	-0.125232
C	0.1090446503743446 0.2184890423582581 0.1637762872418541	0.103572
C	0.0396318938071473 0.2173632371310550 0.1678174114676535	-0.174624
C	0.0018097176212350 0.2471441492883137 0.1054344650598996	0.107955
C	0.0371443550008335 0.2766625811274152 0.0406866515553380	-0.177639
C	0.1066603031792293 0.2757831264269184 0.0407799890684767	0.104745
C	0.9281623504364500 0.2478748925451557 0.1082663626183866	0.052667
C	0.8922578256187828 0.1922428681084932 0.1372789063760292	-0.128856
C	0.8227172584144885 0.1929888017293617 0.1395151683997591	-0.124086
C	0.7868373683862226 0.2497548151291549 0.1141021965137963	0.066303
C	0.8227563732503882 0.3056865219693601 0.0862443076317279	-0.118431
C	0.8922439001631519 0.3045598679863664 0.0826438875497164	-0.125228
C	0.2815109816417438 0.1090446503743446 0.1637762872418541	0.103573
C	0.2826367868689470 0.0396318938071473 0.1678174114676535	-0.174627
C	0.2528558507116865 0.0018097176212350 0.1054344650598996	0.107956
C	0.2233374188725848 0.0371443550008335 0.0406866515553380	-0.177635
C	0.2242168975730835 0.1066603031792293 0.0407799890684767	0.104746
C	0.2521250834548419 0.9281623504364500 0.1082663626183866	0.052667
C	0.3077571668915061 0.8922578256187828 0.1372789063760292	-0.128855
C	0.3070112102706321 0.8227172584144885 0.1395151683997591	-0.124088
C	0.2502451608708433 0.7868373683862226 0.1141021965137963	0.066305
C	0.1943134780306398 0.8227563732503882 0.0862443076317279	-0.118432
C	0.1954401670136327 0.8922439001631519 0.0826438875497164	-0.125229
C	0.2184890423582581 0.3909553256256605 0.1637762872418541	0.103577
C	0.2173632371310550 0.4603680461928549 0.1678174114676535	-0.174626
C	0.2471441492883137 0.4981902613787668 0.1054344650598996	0.107956
C	0.2766625811274152 0.4628556719991652 0.0406866515553380	-0.177639
C	0.2757831264269184 0.3933396608207677 0.0407799890684767	0.104747
C	0.2478748925451557 0.5718376015635531 0.1082663626183866	0.052666
C	0.1922428681084932 0.6077422223812141 0.1372789063760292	-0.128858
C	0.1929888017293617 0.6772827415855115 0.1395151683997591	-0.124086
C	0.2497548151291549 0.7131626316137774 0.1141021965137963	0.066303
C	0.3056865219693601 0.6772436737496121 0.0862443076317279	-0.118431
C	0.3045598679863664 0.6077561958368489 0.0826438875497164	-0.125231
H	0.3606986591477908 0.1965504273771705 0.7123891357418324	0.094556
H	0.4845473906513574 0.1948195496788584 0.7207085287230780	0.116577
H	0.4892084545464577 0.2992799894721031 0.4894106403090323	0.116825
H	0.3649030467839113 0.2979789371432406 0.4907057675725801	0.093899
H	0.5808238213647824 0.1475301101502988 0.6568374162404690	0.101297
H	0.7044786665826295 0.1495367199932080 0.6624099294819805	0.101871
H	0.7044184156781943 0.3497481096496299 0.5651416586019555	0.101950
H	0.5809561662424528 0.3485979601145921 0.5608000394429895	0.104709
H	0.1393013048522063 0.3034495966228317 0.7123891357418324	0.094554
H	0.0154526153486362 0.3051804743211436 0.7207085287230780	0.116580
H	0.0107915344535448 0.2007200225278978 0.4894106403090323	0.116823
H	0.1350969772160907 0.2020210508567586 0.4907057675725801	0.093899
H	0.9191762256352179 0.3524698898497011 0.6568374162404690	0.101298
H	0.7955213334173705 0.3504632680067910 0.6624099294819805	0.101870
H	0.7955815843218057 0.1502519023503713 0.5651416586019555	0.101955
H	0.9190438337575472 0.1514020278854139 0.5608000394429895	0.104712
H	0.3034495966228317 0.3606986591477908 0.7123891357418324	0.094555
H	0.3051804743211436 0.4845473906513574 0.7207085287230780	0.116580
H	0.2007200225278978 0.4892084545464577 0.4894106403090323	0.116824
H	0.2020210508567586 0.3649030467839113 0.4907057675725801	0.093899
H	0.3524698898497011 0.5808238213647824 0.6568374162404690	0.101296
H	0.3504632680067910 0.7044786665826295 0.6624099294819805	0.101870
H	0.1502519023503713 0.7044184156781943 0.5651416586019555	0.101953
H	0.1514020278854139 0.5809561662424528 0.5608000394429895	0.104712
H	0.1965504273771705 0.1393013048522063 0.7123891357418324	0.094554
H	0.1948195496788584 0.0154526153486362 0.7207085287230780	0.116577
H	0.2992799894721031 0.0107915344535448 0.4894106403090323	0.116824
H	0.2979789371432406 0.1350969772160907 0.4907057675725801	0.093899
H	0.1475301101502988 0.9191762256352179 0.6568374162404690	0.101299
H	0.1495367199932080 0.7955213334173705 0.6624099294819805	0.101872
H	0.3497481096496299 0.7955815843218057 0.5651416586019555	0.101952
H	0.3485979601145921 0.9190438337575472 0.5608000394429895	0.104709
H	0.6393012928522053 0.6965504273771707 0.7876108642581676	0.094554
H	0.5154525613486388 0.6948195256788564 0.7792914712769220	0.116577
H	0.5107915454535421 0.7992799894721034 0.0105893446909629	0.116823
H	0.6350969532160886 0.7979789131432381 0.0092942604274221	0.093898
H	0.4191761786352177 0.6475301101502993 0.8431625837595310	0.101298
H	0.2955213574173721 0.6495367319932090 0.8375900705180195	0.101872
H	0.2955815843218058 0.8497481096496297 0.9348583413980445	0.101953
H	0.4190438817575445 0.8485979841145869 0.9391999605570105	0.104711
H	0.8606987551477916 0.8034496206228333 0.7876108642581676	0.094555
H	0.9845473426513603 0.8051804743211436 0.7792914712769220	0.116578
H	0.9892084065464610 0.7007200105278966 0.0105893446909629	0.116825
H	0.8649029507839106 0.7020210868567619 0.0092942604274221	0.093901
H	0.0808238213647822 0.8524698898497007 0.8431625837595310	0.101296
H	0.2044786425826278 0.8504632680067910 0.8375900705180195	0.101869
H	0.2044184156781941 0.6502519383503672 0.9348583413980445	0.101953
H	0.0809561602424521 0.6514020158854131 0.9391999605570105	0.104710
H	0.6965504273771707 0.8606987551477916 0.7876108642581676	0.094555
H	0.6948195256788564 0.9845473426513603 0.7792914712769220	0.116578
H	0.7992799894721034 0.9892084065464610 0.0105893446909629	0.116826
H	0.7979789131432381 0.8649029507839106 0.0092942604274221	0.093901
H	0.6475301101502993 0.0808238213647822 0.8431625837595310	0.101299
H	0.6495367319932090 0.2044786425826278 0.8375900705180195	0.101871
H	0.8497481096496297 0.2044184156781941 0.9348583413980445	0.101951
H	0.8485979841145869 0.0809561602424521 0.9391999605570105	0.104710
H	0.8034496206228333 0.6393012928522053 0.7876108642581676	0.094555
H	0.8051804743211436 0.5154525613486388 0.7792914712769220	0.116577
H	0.7007200105278966 0.5107915454535421 0.0105893446909629	0.116822
H	0.7020210868567619 0.6350969532160886 0.0092942604274221	0.093898
H	0.8524698898497007 0.4191761786352177 0.8431625837595310	0.101296
H	0.8504632680067910 0.2955213574173722 0.8375900705180195	0.101871
H	0.6502519383503672 0.2955815843218058 0.9348583413980445	0.101954
H	0.6514020158854131 0.4190438817575445 0.9391999605570105	0.104712
H	0.6393012928522053 0.8034496206228333 0.2876108962581637	0.094553
H	0.5154525613486388 0.8051804743211436 0.2792915022769211	0.116569
H	0.5107915454535421 0.7007200105278966 0.5105893286909686	0.116821
H	0.6350969532160886 0.7020210868567619 0.5092942324274198	0.093899
H	0.4191761786352177 0.8524698898497007 0.3431625527595319	0.101297
H	0.2955213574173722 0.8504632680067910 0.3375900385180173	0.101871
H	0.2955815843218058 0.6502519383503672 0.4348583723980435	0.101955
H	0.4190438817575445 0.6514020158854131 0.4392000225570085	0.104711
H	0.8606987551477916 0.6965504273771707 0.2876108962581637	0.094555
H	0.9845473426513603 0.6948195256788564 0.2792915022769211	0.116566
H	0.9892084065464610 0.7992799894721034 0.5105893286909686	0.116823
H	0.8649029507839106 0.7979789131432381 0.5092942324274198	0.093899
H	0.0808238213647822 0.6475301101502993 0.3431625527595319	0.101297
H	0.2044786425826278 0.6495367319932090 0.3375900385180173	0.101871
H	0.2044184156781941 0.8497481096496297 0.4348583723980435	0.101950
H	0.0809561602424521 0.8485979841145869 0.4392000225570085	0.104708
H	0.6965504273771707 0.6393012928522053 0.2876108962581637	0.094554
H	0.6948195256788564 0.5154525613486388 0.2792915022769211	0.116566
H	0.7992799894721034 0.5107915454535421 0.5105893286909686	0.116822
H	0.7979789131432381 0.6350969532160886 0.5092942324274198	0.093899
H	0.6475301101502993 0.4191761786352177 0.3431625527595319	0.101298
H	0.6495367319932090 0.2955213574173722 0.3375900385180173	0.101872
H	0.8497481096496297 0.2955815843218058 0.4348583723980435	0.101953
H	0.8485979841145869 0.4190438817575445 0.4392000225570085	0.104708
H	0.8034496206228333 0.8606987551477916 0.2876108962581637	0.094555
H	0.8051804743211436 0.9845473426513603 0.2792915022769211	0.116569
H	0.7007200105278966 0.9892084065464610 0.5105893286909686	0.116822
H	0.7020210868567619 0.8649029507839106 0.5092942324274198	0.093899
H	0.8524698898497007 0.0808238213647822 0.3431625527595319	0.101296
H	0.8504632680067910 0.2044786425826278 0.3375900385180173	0.101870
H	0.6502519383503672 0.2044184156781941 0.4348583723980435	0.101952
H	0.6514020158854131 0.0809561602424521 0.4392000225570085	0.104711
H	0.3606986591477908 0.3034495966228317 0.2123891357418320	0.094555
H	0.4845473906513574 0.3051804743211436 0.2207085437230828	0.116577
H	0.4892084545464577 0.2007200225278978 0.9894107023090375	0.116823
H	0.3649030467839113 0.2020210508567586 0.9907057365725812	0.093900
H	0.5808238213647824 0.3524698898497011 0.1568374312404667	0.101296
H	0.7044786665826295 0.3504632680067910 0.1624099764819802	0.101870
H	0.7044184156781943 0.1502519023503713 0.0651416196019557	0.101953
H	0.5809561662424528 0.1514020278854139 0.0608000004429899	0.104709
H	0.1393013048522063 0.1965504273771705 0.2123891357418320	0.094554
H	0.0154526153486362 0.1948195496788584 0.2207085437230828	0.116575
H	0.0107915344535448 0.2992799894721031 0.9894107023090375	0.116821
H	0.1350969772160907 0.2979789371432406 0.9907057365725812	0.093898
H	0.9191762256352179 0.1475301101502988 0.1568374312404667	0.101298
H	0.7955213334173705 0.1495367199932080 0.1624099764819802	0.101872
H	0.7955815843218057 0.3497481096496299 0.0651416196019557	0.101952
H	0.9190438337575472 0.3485979601145921 0.0608000004429899	0.104710
H	0.3034495966228317 0.1393013048522063 0.2123891357418320	0.094554
H	0.3051804743211436 0.0154526153486362 0.2207085437230828	0.116576
H	0.2007200225278978 0.0107915344535448 0.9894107023090375	0.116820
H	0.2020210508567586 0.1350969772160907 0.9907057365725812	0.093898
H	0.3524698898497011 0.9191762256352179 0.1568374312404667	0.101295
H	0.3504632680067910 0.7955213334173705 0.1624099764819802	0.101871
H	0.1502519023503713 0.7955815843218057 0.0651416196019557	0.101954
H	0.1514020278854139 0.9190438337575472 0.0608000004429899	0.104710
H	0.1965504273771705 0.3606986591477908 0.2123891357418320	0.094554
H	0.1948195496788584 0.4845473906513574 0.2207085437230828	0.116576
H	0.2992799894721031 0.4892084545464577 0.9894107023090375	0.116824
H	0.2979789371432406 0.3649030467839113 0.9907057365725812	0.093900
H	0.1475301101502988 0.5808238213647824 0.1568374312404667	0.101298
H	0.1495367199932080 0.7044786665826295 0.1624099764819802	0.101870
H	0.3497481096496299 0.7044184156781943 0.0651416196019557	0.101951
H	0.3485979601145921 0.5809561662424528 0.0608000004429899	0.104708
Zn	0.2500000000000000 0.2500000000000000 0.6009712719487670	0.750909
Zn	0.7500000000000000 0.7500000000000000 0.8990287280512330	0.750909
Zn	0.7500000000000000 0.7500000000000000 0.3990286660512350	0.750905
Zn	0.2500000000000000 0.2500000000000000 0.1009712949487653	0.750905
Zr	0.2500000000000000 0.2500000000000000 0.3511842893234435	2.481366
Zr	0.7500000000000000 0.7500000000000000 0.1488157256765540	2.481366
Zr	0.7500000000000000 0.7500000000000000 0.6488158036765536	2.481365
Zr	0.2500000000000000 0.2500000000000000 0.8511841963234464	2.481365
	  	
