#======================================================================

# CRYSTAL DATA

#----------------------------------------------------------------------

data_VESTA_phase_1


_pd_phase_name                         ZrFSIX_7_Ni
_cell_length_a                         19.16960
_cell_length_b                         19.16960
_cell_length_c                         8.27545
_cell_angle_alpha                      90
_cell_angle_beta                       90
_cell_angle_gamma                      90
_symmetry_space_group_name_H-M         P 1
_symmetry_Int_Tables_number            1

loop_
_symmetry_equiv_pos_as_xyz
   x, y, z

loop_
   _atom_site_label
   _atom_site_fract_x
   _atom_site_fract_y
   _atom_site_fract_z
   _atom_site_charge
C	0.6650596147978037 0.8714724761731572 0.6931882744752007	0.105685
C	0.6138746768388622 0.9227497175095395 0.6976268375490261	-0.172996
C	0.5800384842317604 0.8883132197599859 0.4309881434488330	-0.168611
C	0.6312083645833129 0.8372666193658218 0.4370478607356155	0.102939
C	0.8349403852021963 0.6285275238268428 0.6931882744752007	0.105685
C	0.8861253731611348 0.5772503334904612 0.6976268375490261	-0.172991
C	0.9199614147682419 0.6116868312400077 0.4309881434488330	-0.168619
C	0.8687916354166871 0.6627333806341782 0.4370478607356155	0.102966
C	0.6285275238268428 0.6650596147978037 0.6931882744752007	0.105685
C	0.5772503334904612 0.6138746768388622 0.6976268375490261	-0.172995
C	0.6116868312400077 0.5800384842317604 0.4309881434488330	-0.168610
C	0.6627333806341782 0.6312083645833129 0.4370478607356155	0.102939
C	0.8714724761731572 0.8349403852021963 0.6931882744752007	0.105686
C	0.9227497175095395 0.8861253731611348 0.6976268375490261	-0.172991
C	0.8883132197599859 0.9199614147682419 0.4309881434488330	-0.168618
C	0.8372666193658218 0.8687916354166871 0.4370478607356154	0.102967
C	0.3349403602021980 0.3714724261731533 0.3068117555248019	0.105685
C	0.3861253231611375 0.4227497175095395 0.3023731924509764	-0.172993
C	0.4199615157682395 0.3883131687599923 0.5690118565511672	-0.168611
C	0.3687915844166932 0.3372666193658218 0.5629521692643870	0.102938
C	0.1650596397978022 0.1285275608268491 0.3068117555248019	0.105685
C	0.1138746768388624 0.0772502824904606 0.3023731924509764	-0.172994
C	0.0800384652317553 0.1116868312400077 0.5690118565511672	-0.168611
C	0.1312084155833066 0.1627333686341772 0.5629521692643870	0.102939
C	0.3714724261731533 0.1650596397978022 0.3068117555248019	0.105685
C	0.4227497175095395 0.1138746768388624 0.3023731924509764	-0.172993
C	0.3883131687599923 0.0800384652317553 0.5690118565511672	-0.168610
C	0.3372666193658218 0.1312084155833066 0.5629521692643871	0.102939
C	0.1285275608268491 0.3349403602021980 0.3068117555248019	0.105685
C	0.0772502824904606 0.3861253231611375 0.3023731924509764	-0.172993
C	0.1116868312400077 0.4199615157682395 0.5690118565511672	-0.168610
C	0.1627333686341772 0.3687915844166932 0.5629521692643870	0.102939
C	0.4331016497743440 0.0701157834749314 0.4365073811485980	0.141733
C	0.4874340937322744 0.0167738380518093 0.4339266741256820	-0.121680
C	0.0668983502256560 0.4298842095250716 0.4365073811485980	0.141733
C	0.0125658742677230 0.4832260979481925 0.4339266741256820	-0.121680
C	0.4298842095250716 0.4331016497743440 0.4365073811485980	0.141733
C	0.4832260979481925 0.4874340937322744 0.4339266741256820	-0.121680
C	0.0701157834749314 0.0668983502256560 0.4365073811485980	0.141734
C	0.0167738380518093 0.0125658742677230 0.4339266741256820	-0.121680
C	0.5668983502256562 0.5701157904749280 0.5634926188514021	0.141732
C	0.5125659572677190 0.5167738520518034 0.5660733548743172	-0.121662
C	0.9331015997743468 0.9298841595250679 0.5634926188514021	0.141721
C	0.9874340937322745 0.9832261989481973 0.5660733548743172	-0.121663
C	0.5701157904749280 0.9331015997743468 0.5634926188514021	0.141732
C	0.5167738520518034 0.9874340937322745 0.5660733548743172	-0.121662
C	0.9298841595250679 0.5668983502256562 0.5634926188514021	0.141721
C	0.9832261989481973 0.5125659572677190 0.5660733548743172	-0.121663
H	0.6991835006924734 0.8634156074801195 0.7964993016825087	0.092859
H	0.6087813579292000 0.9545999987676489 0.8060710670987054	0.120424
H	0.5473976437888857 0.8916060757007057 0.3235186173049134	0.119828
H	0.6389229643715985 0.8024131878066758 0.3350552037925265	0.092238
H	0.8008164993075266 0.6365843925198805 0.7964993016825087	0.092859
H	0.8912186420708000 0.5454000522323518 0.8060710670987054	0.120424
H	0.9526024072111150 0.6083939752992950 0.3235186173049134	0.119820
H	0.8610770356284015 0.6975868121933242 0.3350552037925265	0.092235
H	0.6365843925198805 0.6991835006924734 0.7964993016825087	0.092859
H	0.5454000522323518 0.6087813579292000 0.8060710670987054	0.120424
H	0.6083939752992950 0.5473976437888857 0.3235186173049134	0.119828
H	0.6975868121933242 0.6389229643715985 0.3350552037925265	0.092238
H	0.8634156074801195 0.8008164993075266 0.7964993016825087	0.092859
H	0.9545999987676489 0.8912186420708000 0.8060710670987054	0.120424
H	0.8916060757007057 0.9526024072111150 0.3235186173049134	0.119819
H	0.8024131878066758 0.8610770356284015 0.3350552037925265	0.092235
H	0.3008165253075286 0.3634155314801203 0.2035006833174935	0.092857
H	0.3912185660707940 0.4545999477676483 0.1939288889012909	0.120424
H	0.4526024072111153 0.3916060757007055 0.6764813526950909	0.119828
H	0.3610770606284074 0.3024132138066785 0.6649447962074736	0.092238
H	0.1991834876924690 0.1365844945198819 0.2035006833174935	0.092857
H	0.1087814089292004 0.0454000682323531 0.1939288889012909	0.120424
H	0.0473975867888841 0.1083939502992966 0.6764813526950909	0.119828
H	0.1389229643715983 0.1975867741933207 0.6649447962074736	0.092238
H	0.3634155314801203 0.1991834876924690 0.2035006833174935	0.092857
H	0.4545999477676483 0.1087814089292004 0.1939288889012909	0.120423
H	0.3916060757007055 0.0473975867888841 0.6764813526950909	0.119828
H	0.3024132138066785 0.1389229643715983 0.6649447962074736	0.092238
H	0.1365844945198819 0.3008165253075286 0.2035006833174935	0.092857
H	0.0454000682323531 0.3912185660707940 0.1939288889012909	0.120423
H	0.1083939502992966 0.4526024072111153 0.6764813526950909	0.119828
H	0.1975867741933207 0.3610770606284074 0.6649447962074736	0.092238
H	0.5063084210633894 0.0017852816124773 0.3140701781275142	0.105169
H	0.9936916299366113 0.4982146903875205 0.3140701781275142	0.105169
H	0.4982146903875205 0.5063084210633894 0.3140701781275142	0.105169
H	0.0017852816124773 0.9936916299366113 0.3140701781275142	0.105169
H	0.4936915789366109 0.5017852596124828 0.6859298518724810	0.105168
H	0.0063084120633920 0.9982146903875202 0.6859298518724810	0.105168
H	0.5017852596124828 0.0063084120633920 0.6859298518724810	0.105168
H	0.9982146903875202 0.4936915789366109 0.6859298518724810	0.105168
Ni	0.2500000000000000 0.2500000000000000 0.4338929725883226	0.779185
Ni	0.7500000000000000 0.7500000000000000 0.5661070274116773	0.779184
Zr	0.2500000000000000 0.2500000000000000 0.9347072678130033	2.467444
Zr	0.7500000000000000 0.7500000000000000 0.0652927171869987	2.467444
F	0.2500000000000000 0.2500000000000000 0.1872134609659687	-0.617893
F	0.2500000000000000 0.2500000000000000 0.6816987766263516	-0.617333
F	0.7500000000000000 0.7500000000000000 0.8127865690340338	-0.617889
F	0.7500000000000000 0.7500000000000000 0.3183012233736487	-0.617333
F	0.3258245876590110 0.3242077692404385 0.9348904813006801	-0.676150
F	0.1741754373409874 0.1757922557595599 0.9348904813006801	-0.676150
F	0.1757922557595599 0.3258245876590110 0.9348904813006801	-0.676150
F	0.3242077692404385 0.1741754373409874 0.9348904813006801	-0.676150
F	0.6741754373409875 0.8242077692404385 0.0651095186993201	-0.676151
F	0.8258245626590125 0.6757922307595615 0.0651095186993201	-0.676151
F	0.8242077692404385 0.8258245626590125 0.0651095186993201	-0.676151
F	0.6757922307595615 0.6741754373409874 0.0651095186993201	-0.676151
N	0.3288121673167963 0.1737672143454767 0.4345420365798931	-0.244296
N	0.1711878576832022 0.3262328106545218 0.4345420365798931	-0.244296
N	0.3262328106545218 0.3288121673167963 0.4345420365798931	-0.244296
N	0.1737672143454767 0.1711878576832022 0.4345420365798931	-0.244296
N	0.6711878326832036 0.6737671893454784 0.5654579634201066	-0.244296
N	0.8288121673167964 0.8262328106545216 0.5654579634201066	-0.244299
N	0.6737671893454784 0.8288121673167964 0.5654579634201066	-0.244296
N	0.8262328106545216 0.6711878326832036 0.5654579634201066	-0.244299
	  	
