#======================================================================

# CRYSTAL DATA

#----------------------------------------------------------------------

data_VESTA_phase_1


_pd_phase_name                         ZrFSIX_6_Cd_i
_cell_length_a                         18.18867
_cell_length_b                         18.18867
_cell_length_c                         16.98672
_cell_angle_alpha                      90
_cell_angle_beta                       90
_cell_angle_gamma                      90
_symmetry_space_group_name_H-M         P 1
_symmetry_Int_Tables_number            1

loop_
_symmetry_equiv_pos_as_xyz
   x, y, z

loop_
   _atom_site_label
   _atom_site_fract_x
   _atom_site_fract_y
   _atom_site_fract_z
   _atom_site_charge
N	0.2437326618095534 0.1216745430637968 0.1281852517143215	-0.248096
N	0.2562673381904466 0.3783254709362044 0.1281852517143215	-0.248095
N	0.3783254709362044 0.2437326618095534 0.1281852517143215	-0.248095
N	0.1216745430637968 0.2562673381904466 0.1281852517143215	-0.248095
N	0.7562673111904477 0.6216745560638015 0.3718147332856808	-0.248096
N	0.7437326888095523 0.8783254439361985 0.3718147332856808	-0.248094
N	0.6216745560638015 0.7437326888095523 0.3718147332856808	-0.248095
N	0.8783254439361985 0.7562673111904477 0.3718147332856808	-0.248095
N	0.7562673111904477 0.8783254439361985 0.8718147332856808	-0.248095
N	0.7437326888095523 0.6216745560638015 0.8718147332856808	-0.248097
N	0.6216745560638015 0.7562673111904477 0.8718147332856808	-0.248096
N	0.8783254439361985 0.7437326888095523 0.8718147332856808	-0.248096
N	0.2437326618095534 0.3783254709362044 0.6281852667143192	-0.248095
N	0.2562673381904466 0.1216745430637968 0.6281852667143192	-0.248096
N	0.3783254709362044 0.2562673381904466 0.6281852667143192	-0.248096
N	0.1216745430637968 0.2437326618095534 0.6281852667143192	-0.248096
C	0.2028649854316936 0.0862546325128299 0.1822136550310133	0.101682
C	0.1949244396581469 0.0102382833111494 0.1818707572762617	-0.176219
C	0.2325155990234438 0.9684536706770543 0.1252500881258675	0.113325
C	0.2757710465791756 0.0061566767763936 0.0700243988487927	-0.175517
C	0.2790808522072347 0.0824902803395241 0.0727160438323117	0.103624
C	0.2269393439904913 0.8876157815579948 0.1240809471940944	0.060378
C	0.2898024172476913 0.8447506600900982 0.1210916407445875	-0.173997
C	0.2854781125927161 0.7671660893895429 0.1221232200511519	0.085329
C	0.1507656839444152 0.7777443148165878 0.1245833188574235	-0.125594
C	0.1567995100214647 0.8530919457765010 0.1269048915827721	-0.136601
C	0.2971349745683102 0.4137453804871677 0.1822136550310133	0.101682
C	0.3050755203418500 0.4897616976888525 0.1818707572762617	-0.176218
C	0.2674844009765561 0.5315463293229457 0.1252500881258675	0.113326
C	0.2242289664208220 0.4938433202236026 0.0700243988487927	-0.175518
C	0.2209191617927665 0.4175097266604800 0.0727160438323117	0.103622
C	0.2730606560095086 0.6123842184420052 0.1240809471940944	0.060377
C	0.2101976237523084 0.6552493399099018 0.1210916407445875	-0.173995
C	0.2145218604072852 0.7328339106104571 0.1221232200511519	0.085329
C	0.3492343020555834 0.7222556851834122 0.1245833188574235	-0.125596
C	0.3432004899785355 0.6469080542234990 0.1269048915827721	-0.136600
C	0.4137453804871677 0.2028649854316936 0.1822136550310133	0.101683
C	0.4897616976888525 0.1949244396581469 0.1818707572762617	-0.176218
C	0.5315463293229457 0.2325155990234438 0.1252500881258675	0.113325
C	0.4938433202236026 0.2757710465791756 0.0700243988487927	-0.175516
C	0.4175097266604800 0.2790808522072347 0.0727160438323117	0.103623
C	0.6123842184420052 0.2269393439904913 0.1240809471940944	0.060378
C	0.6552493399099018 0.2898024172476913 0.1210916407445875	-0.173996
C	0.7328339106104571 0.2854781125927161 0.1221232200511519	0.085329
C	0.7222556851834122 0.1507656839444152 0.1245833188574235	-0.125594
C	0.6469080542234990 0.1567995100214647 0.1269048915827721	-0.136600
C	0.0862546325128299 0.2971349745683102 0.1822136550310133	0.101682
C	0.0102382833111494 0.3050755203418500 0.1818707572762617	-0.176218
C	0.9684536706770543 0.2674844009765561 0.1252500881258675	0.113326
C	0.0061566767763936 0.2242289664208220 0.0700243988487927	-0.175518
C	0.0824902803395241 0.2209191617927665 0.0727160438323117	0.103624
C	0.8876157815579948 0.2730606560095086 0.1240809471940944	0.060377
C	0.8447506600900982 0.2101976237523084 0.1210916407445875	-0.173997
C	0.7671660893895429 0.2145218604072852 0.1221232200511519	0.085329
C	0.7777443148165878 0.3492343020555834 0.1245833188574235	-0.125596
C	0.8530919457765010 0.3432004899785355 0.1269048915827721	-0.136601
C	0.7971350275683038 0.5862546195128324 0.3177863609689878	0.101684
C	0.8050755733418506 0.5102382483111431 0.3181292117237393	-0.176218
C	0.7674844009765563 0.4684536706770542 0.3747498798741298	0.113325
C	0.7242289264208257 0.5061567337763945 0.4299756051512078	-0.175518
C	0.7209191217927632 0.5824903273395245 0.4272839961676843	0.103623
C	0.7730607360095084 0.3876158345579958 0.3759190448059050	0.060377
C	0.7101976097523072 0.3447506070900972 0.3789083512554118	-0.173996
C	0.7145218874072841 0.2671660093895435 0.3778767799488481	0.085329
C	0.8492343290555895 0.2777442878165889 0.3754166651425752	-0.125594
C	0.8432004369785344 0.3530919197764989 0.3730951404172305	-0.136602
C	0.7028649724316962 0.9137453804871676 0.3177863609689878	0.101681
C	0.6949244266581494 0.9897616976888525 0.3181292117237393	-0.176219
C	0.7325155990234437 0.0315463353229463 0.3747498798741298	0.113326
C	0.7757710735791743 0.9938433202236029 0.4299756051512078	-0.175517
C	0.7790808782072368 0.9175097796604808 0.4272839961676843	0.103623
C	0.7269392639904916 0.1123841924420031 0.3759190448059050	0.060377
C	0.7898023902476928 0.1552493799098981 0.3789083512554118	-0.173996
C	0.7854781125927160 0.2328339636104579 0.3778767799488481	0.085328
C	0.6507656709444105 0.2222556991834136 0.3754166651425752	-0.125595
C	0.6567995630214656 0.1469080542234990 0.3730951404172305	-0.136599
C	0.5862546195128324 0.7028649724316962 0.3177863609689878	0.101684
C	0.5102382483111431 0.6949244266581494 0.3181292117237393	-0.176219
C	0.4684536706770542 0.7325155990234437 0.3747498798741298	0.113326
C	0.5061567337763945 0.7757710735791743 0.4299756051512078	-0.175517
C	0.5824903273395245 0.7790808782072368 0.4272839961676843	0.103623
C	0.3876158345579958 0.7269392639904916 0.3759190448059050	0.060377
C	0.3447506070900972 0.7898023902476928 0.3789083512554118	-0.173996
C	0.2671660093895435 0.7854781125927160 0.3778767799488481	0.085329
C	0.2777442878165889 0.6507656709444105 0.3754166651425752	-0.125594
C	0.3530919197764989 0.6567995630214656 0.3730951404172305	-0.136601
C	0.9137453804871676 0.7971350275683038 0.3177863609689878	0.101682
C	0.9897616976888525 0.8050755733418506 0.3181292117237393	-0.176217
C	0.0315463353229463 0.7674844009765563 0.3747498798741298	0.113325
C	0.9938433202236029 0.7242289264208257 0.4299756051512078	-0.175518
C	0.9175097796604808 0.7209191217927632 0.4272839961676843	0.103623
C	0.1123841924420031 0.7730607360095084 0.3759190448059050	0.060378
C	0.1552493799098981 0.7101976097523072 0.3789083512554118	-0.173995
C	0.2328339636104579 0.7145218874072841 0.3778767799488481	0.085329
C	0.2222556991834136 0.8492343290555895 0.3754166651425752	-0.125595
C	0.1469080542234990 0.8432004369785344 0.3730951404172305	-0.136600
C	0.7971350275683038 0.9137453804871676 0.8177863289689856	0.101682
C	0.8050755733418506 0.9897616976888525 0.8181292747237406	-0.176217
C	0.7674844009765563 0.0315463353229463 0.8747499438741281	0.113326
C	0.7242289264208257 0.9938433202236028 0.9299755741512086	-0.175519
C	0.7209191217927632 0.9175097796604808 0.9272839641676818	0.103625
C	0.7730607360095084 0.1123841924420031 0.8759190448059050	0.060377
C	0.7101976097523072 0.1552493799098981 0.8789083832554140	-0.173995
C	0.7145218874072840 0.2328339636104579 0.8778768119488439	0.085329
C	0.8492343290555895 0.2222556991834136 0.8754167281425767	-0.125595
C	0.8432004369785344 0.1469080542234990 0.8730951724172261	-0.136600
C	0.7028649724316962 0.5862546195128324 0.8177863289689856	0.101683
C	0.6949244266581494 0.5102382483111431 0.8181292747237406	-0.176218
C	0.7325155990234437 0.4684536706770542 0.8747499438741281	0.113324
C	0.7757710735791743 0.5061567337763945 0.9299755741512086	-0.175518
C	0.7790808782072368 0.5824903273395245 0.9272839641676818	0.103627
C	0.7269392639904916 0.3876158345579958 0.8759190448059050	0.060377
C	0.7898023902476928 0.3447506070900972 0.8789083832554140	-0.173997
C	0.7854781125927160 0.2671660093895435 0.8778768119488439	0.085329
C	0.6507656709444105 0.2777442878165889 0.8754167281425767	-0.125594
C	0.6567995630214656 0.3530919197764989 0.8730951724172261	-0.136601
C	0.5862546195128324 0.7971350275683038 0.8177863289689856	0.101683
C	0.5102382483111431 0.8050755733418506 0.8181292747237406	-0.176217
C	0.4684536706770542 0.7674844009765563 0.8747499438741281	0.113326
C	0.5061567337763945 0.7242289264208257 0.9299755741512086	-0.175519
C	0.5824903273395245 0.7209191217927632 0.9272839641676818	0.103627
C	0.3876158345579958 0.7730607360095084 0.8759190448059050	0.060377
C	0.3447506070900972 0.7101976097523072 0.8789083832554140	-0.173997
C	0.2671660093895435 0.7145218874072840 0.8778768119488439	0.085329
C	0.2777442878165889 0.8492343290555895 0.8754167281425767	-0.125595
C	0.3530919197764989 0.8432004369785344 0.8730951724172261	-0.136601
C	0.9137453804871676 0.7028649724316962 0.8177863289689856	0.101683
C	0.9897616976888525 0.6949244266581494 0.8181292747237406	-0.176218
C	0.0315463353229463 0.7325155990234437 0.8747499438741281	0.113324
C	0.9938433202236029 0.7757710735791743 0.9299755741512086	-0.175517
C	0.9175097796604808 0.7790808782072368 0.9272839641676818	0.103626
C	0.1123841924420031 0.7269392639904916 0.8759190448059050	0.060378
C	0.1552493799098981 0.7898023902476928 0.8789083832554140	-0.173995
C	0.2328339636104579 0.7854781125927160 0.8778768119488439	0.085329
C	0.2222556991834136 0.6507656709444105 0.8754167281425767	-0.125594
C	0.1469080542234990 0.6567995630214656 0.8730951724172261	-0.136601
C	0.2028649854316936 0.4137453804871677 0.6822136710310144	0.101681
C	0.1949244396581469 0.4897616976888525 0.6818707252762594	-0.176218
C	0.2325155990234438 0.5315463293229457 0.6252500561258719	0.113326
C	0.2757710465791756 0.4938433202236026 0.5700244258487914	-0.175516
C	0.2790808522072347 0.4175097266604800 0.5727160358323182	0.103623
C	0.2269393439904913 0.6123842184420052 0.6240809551940950	0.060378
C	0.2898024172476913 0.6552493399099018 0.6210916167445860	-0.173997
C	0.2854781125927161 0.7328339106104571 0.6221231880511561	0.085329
C	0.1507656839444152 0.7222556851834122 0.6245832718574233	-0.125595
C	0.1567995100214647 0.6469080542234990 0.6269048275827739	-0.136600
C	0.2971349745683102 0.0862546325128299 0.6822136710310144	0.101683
C	0.3050755203418500 0.0102382833111494 0.6818707252762594	-0.176217
C	0.2674844009765561 0.9684536706770543 0.6252500561258719	0.113324
C	0.2242289664208220 0.0061566767763936 0.5700244258487914	-0.175518
C	0.2209191617927665 0.0824902803395241 0.5727160358323182	0.103623
C	0.2730606560095086 0.8876157815579948 0.6240809551940950	0.060377
C	0.2101976237523084 0.8447506600900982 0.6210916167445860	-0.173996
C	0.2145218604072852 0.7671660893895429 0.6221231880511561	0.085329
C	0.3492343020555834 0.7777443148165878 0.6245832718574233	-0.125594
C	0.3432004899785355 0.8530919457765010 0.6269048275827739	-0.136602
C	0.4137453804871677 0.2971349745683102 0.6822136710310144	0.101681
C	0.4897616976888525 0.3050755203418500 0.6818707252762594	-0.176216
C	0.5315463293229457 0.2674844009765561 0.6252500561258719	0.113324
C	0.4938433202236026 0.2242289664208220 0.5700244258487914	-0.175517
C	0.4175097266604800 0.2209191617927665 0.5727160358323182	0.103623
C	0.6123842184420052 0.2730606560095086 0.6240809551940950	0.060378
C	0.6552493399099018 0.2101976237523084 0.6210916167445860	-0.173996
C	0.7328339106104571 0.2145218604072852 0.6221231880511561	0.085329
C	0.7222556851834122 0.3492343020555834 0.6245832718574233	-0.125595
C	0.6469080542234990 0.3432004899785355 0.6269048275827739	-0.136600
C	0.0862546325128299 0.2028649854316936 0.6822136710310144	0.101683
C	0.0102382833111494 0.1949244396581469 0.6818707252762594	-0.176219
C	0.9684536706770543 0.2325155990234438 0.6252500561258719	0.113326
C	0.0061566767763936 0.2757710465791756 0.5700244258487914	-0.175516
C	0.0824902803395241 0.2790808522072347 0.5727160358323182	0.103623
C	0.8876157815579948 0.2269393439904913 0.6240809551940950	0.060377
C	0.8447506600900982 0.2898024172476913 0.6210916167445860	-0.173997
C	0.7671660893895429 0.2854781125927161 0.6221231880511561	0.085329
C	0.7777443148165878 0.1507656839444152 0.6245832718574233	-0.125594
C	0.8530919457765010 0.1567995100214647 0.6269048275827739	-0.136601
H	0.1768155423334961 0.1203673413813592 0.2272189146958614	0.099670
H	0.1614377455032432 0.9833955805988631 0.2266843081522610	0.116943
H	0.3049915350647013 0.9760962749924049 0.0241318339987069	0.117774
H	0.3099662237739672 0.1138667356439044 0.0289784499051537	0.097969
H	0.3439047481911352 0.8708634769137177 0.1204306701385374	0.109294
H	0.0968486886218011 0.7514568570251653 0.1250046993755896	0.111777
H	0.1074706601838901 0.8871777989993103 0.1289671734254776	0.103755
H	0.3231844306665052 0.3796326856186466 0.2272189146958614	0.099668
H	0.3385622944967533 0.5166044194011369 0.2266843081522610	0.116943
H	0.1950084779352964 0.5239037250075951 0.0241318339987069	0.117774
H	0.1900337762260325 0.3861332643560956 0.0289784499051537	0.097969
H	0.1560952658088660 0.6291365230862823 0.1204306701385374	0.109292
H	0.4031513043781948 0.7485431429748347 0.1250046993755896	0.111778
H	0.3925293528161146 0.6128222010006897 0.1289671734254776	0.103755
H	0.3796326856186466 0.1768155423334961 0.2272189146958614	0.099668
H	0.5166044194011369 0.1614377455032432 0.2266843081522610	0.116944
H	0.5239037250075951 0.3049915350647013 0.0241318339987069	0.117774
H	0.3861332643560956 0.3099662237739672 0.0289784499051537	0.097969
H	0.6291365230862823 0.3439047481911352 0.1204306701385374	0.109295
H	0.7485431429748347 0.0968486886218011 0.1250046993755896	0.111777
H	0.6128222010006897 0.1074706601838901 0.1289671734254776	0.103756
H	0.1203673413813592 0.3231844306665052 0.2272189146958614	0.099669
H	0.9833955805988631 0.3385622944967533 0.2266843081522610	0.116942
H	0.9760962749924049 0.1950084779352964 0.0241318339987069	0.117774
H	0.1138667356439044 0.1900337762260325 0.0289784499051537	0.097969
H	0.8708634769137177 0.1560952658088660 0.1204306701385374	0.109292
H	0.7514568570251653 0.4031513043781948 0.1250046993755896	0.111778
H	0.8871777989993103 0.3925293528161146 0.1289671734254776	0.103756
H	0.8231844306665052 0.6203673683813578 0.2727811013041402	0.099670
H	0.8385622134967573 0.4833956345988599 0.2733156918477392	0.116943
H	0.6950084649352988 0.4760962749924049 0.4758681680012932	0.117774
H	0.6900338292260332 0.6138667626439033 0.4710215480948463	0.097969
H	0.6560952518088649 0.3708634229137205 0.3795693378614632	0.109293
H	0.9031512513781941 0.2514568840251643 0.3749952926244097	0.111778
H	0.8925293258161160 0.3871778249993053 0.3710328345745232	0.103757
H	0.6768155693334948 0.8796326316186422 0.2727811013041402	0.099669
H	0.6614377865032427 0.0166043814011342 0.2733156918477392	0.116943
H	0.8049915350647012 0.0239037240075915 0.4758681680012932	0.117773
H	0.8099661707739668 0.8861332373560967 0.4710215480948463	0.097968
H	0.8439047481911351 0.1291365900862843 0.3795693378614632	0.109294
H	0.5968486956218051 0.2485430889748301 0.3749952926244097	0.111776
H	0.6074706741838840 0.1128221880006923 0.3710328345745232	0.103754
H	0.6203673683813578 0.6768155693334948 0.2727811013041402	0.099670
H	0.4833956345988599 0.6614377865032427 0.2733156918477392	0.116944
H	0.4760962749924049 0.8049915350647012 0.4758681680012932	0.117773
H	0.6138667626439033 0.8099661707739668 0.4710215480948463	0.097969
H	0.3708634229137205 0.8439047481911351 0.3795693378614632	0.109294
H	0.2514568840251643 0.5968486956218051 0.3749952926244097	0.111777
H	0.3871778249993053 0.6074706741838840 0.3710328345745232	0.103755
H	0.8796326316186422 0.8231844306665052 0.2727811013041402	0.099669
H	0.0166043814011342 0.8385622134967573 0.2733156918477392	0.116943
H	0.0239037240075915 0.6950084649352988 0.4758681680012932	0.117775
H	0.8861332373560967 0.6900338292260332 0.4710215480948463	0.097968
H	0.1291365900862843 0.6560952518088649 0.3795693378614632	0.109293
H	0.2485430889748301 0.9031512513781941 0.3749952926244097	0.111777
H	0.1128221880006923 0.8925293258161160 0.3710328345745232	0.103757
H	0.8231844306665052 0.8796326316186422 0.7727810703041408	0.099669
H	0.8385622134967573 0.0166043814011342 0.7733157068477439	0.116943
H	0.6950084649352988 0.0239037240075915 0.9758681990012924	0.117774
H	0.6900338292260332 0.8861332373560967 0.9710214840948475	0.097967
H	0.6560952518088649 0.1291365900862843 0.8795693058614602	0.109293
H	0.9031512513781941 0.2485430889748301 0.8749952296244081	0.111778
H	0.8925293258161160 0.1128221880006923 0.8710328025745204	0.103756
H	0.6768155693334948 0.6203673683813578 0.7727810703041408	0.099670
H	0.6614377865032427 0.4833956345988599 0.7733157068477439	0.116944
H	0.8049915350647012 0.4760962749924049 0.9758681990012923	0.117773
H	0.8099661707739668 0.6138667626439033 0.9710214840948475	0.097967
H	0.8439047481911351 0.3708634229137205 0.8795693058614602	0.109292
H	0.5968486956218051 0.2514568840251643 0.8749952296244081	0.111776
H	0.6074706741838840 0.3871778249993053 0.8710328025745204	0.103755
H	0.6203673683813578 0.8231844306665052 0.7727810703041408	0.099670
H	0.4833956345988599 0.8385622134967573 0.7733157068477439	0.116943
H	0.4760962749924049 0.6950084649352988 0.9758681990012923	0.117774
H	0.6138667626439033 0.6900338292260332 0.9710214840948475	0.097967
H	0.3708634229137205 0.6560952518088649 0.8795693058614602	0.109293
H	0.2514568840251643 0.9031512513781941 0.8749952296244081	0.111779
H	0.3871778249993053 0.8925293258161160 0.8710328025745204	0.103756
H	0.8796326316186422 0.6768155693334948 0.7727810703041408	0.099669
H	0.0166043814011342 0.6614377865032427 0.7733157068477439	0.116945
H	0.0239037240075915 0.8049915350647012 0.9758681990012923	0.117774
H	0.8861332373560967 0.8099661707739668 0.9710214840948475	0.097967
H	0.1291365900862843 0.8439047481911351 0.8795693058614602	0.109294
H	0.2485430889748301 0.5968486956218051 0.8749952296244081	0.111775
H	0.1128221880006923 0.6074706741838840 0.8710328025745204	0.103756
H	0.1768155423334961 0.3796326856186466 0.7272189296958592	0.099669
H	0.1614377455032432 0.5166044194011369 0.7266842931522561	0.116943
H	0.3049915350647013 0.5239037250075951 0.5241318319987067	0.117774
H	0.3099662237739672 0.3861332643560956 0.5289784519051544	0.097969
H	0.3439047481911352 0.6291365230862823 0.6204306941385398	0.109295
H	0.0968486886218011 0.7485431429748347 0.6250047703755919	0.111777
H	0.1074706601838901 0.6128222010006897 0.6289671974254796	0.103754
H	0.3231844306665052 0.1203673413813592 0.7272189296958592	0.099669
H	0.3385622944967533 0.9833955805988631 0.7266842931522561	0.116943
H	0.1950084779352964 0.9760962749924049 0.5241318319987067	0.117774
H	0.1900337762260325 0.1138667356439044 0.5289784519051544	0.097970
H	0.1560952658088660 0.8708634769137177 0.6204306941385398	0.109292
H	0.4031513043781948 0.7514568570251653 0.6250047703755919	0.111777
H	0.3925293528161146 0.8871777989993103 0.6289671974254796	0.103757
H	0.3796326856186466 0.3231844306665052 0.7272189296958592	0.099669
H	0.5166044194011369 0.3385622944967533 0.7266842931522561	0.116943
H	0.5239037250075951 0.1950084779352964 0.5241318319987067	0.117775
H	0.3861332643560956 0.1900337762260325 0.5289784519051544	0.097969
H	0.6291365230862823 0.1560952658088660 0.6204306941385398	0.109294
H	0.7485431429748347 0.4031513043781948 0.6250047703755919	0.111778
H	0.6128222010006897 0.3925293528161146 0.6289671974254796	0.103757
H	0.1203673413813592 0.1768155423334961 0.7272189296958592	0.099669
H	0.9833955805988631 0.1614377455032432 0.7266842931522561	0.116944
H	0.9760962749924049 0.3049915350647013 0.5241318319987067	0.117773
H	0.1138667356439044 0.3099662237739672 0.5289784519051544	0.097970
H	0.8708634769137177 0.3439047481911352 0.6204306941385398	0.109293
H	0.7514568570251653 0.0968486886218011 0.6250047703755919	0.111775
H	0.8871777989993103 0.1074706601838901 0.6289671974254796	0.103755
F	0.3156438423003408 0.1587698420032226 0.3781070653418273	-0.707537
F	0.1843561846996579 0.3412301579967776 0.3781070653418273	-0.707535
F	0.3412301579967776 0.3156438423003408 0.3781070653418273	-0.707536
F	0.1587698420032226 0.1843561846996579 0.3781070653418273	-0.707536
F	0.6843561576996590 0.6587697880032253 0.1218929346581727	-0.707537
F	0.8156438423003410 0.8412302119967747 0.1218929346581727	-0.707537
F	0.6587697880032253 0.8156438423003410 0.1218929346581727	-0.707536
F	0.8412302119967747 0.6843561576996590 0.1218929346581727	-0.707538
F	0.6843561576996590 0.8412302119967747 0.6218929026581702	-0.707535
F	0.8156438423003410 0.6587697880032253 0.6218929026581702	-0.707537
F	0.6587697880032253 0.6843561576996590 0.6218929026581702	-0.707536
F	0.8412302119967747 0.8156438423003410 0.6218929026581702	-0.707536
F	0.3156438423003408 0.3412301579967776 0.8781070973418298	-0.707536
F	0.1843561846996579 0.1587698420032226 0.8781070973418298	-0.707536
F	0.3412301579967776 0.1843561846996579 0.8781070973418298	-0.707537
F	0.1587698420032226 0.3156438423003408 0.8781070973418298	-0.707535
F	0.2500000000000000 0.2500000000000000 0.2576928967312327	-0.628956
F	0.2500000000000000 0.2500000000000000 0.4995562907705749	-0.630964
F	0.7500000000000000 0.7500000000000000 0.2423071192687685	-0.628956
F	0.7500000000000000 0.7500000000000000 0.0004437162294292	-0.630965
F	0.7500000000000000 0.7500000000000000 0.7423070712687644	-0.628957
F	0.7500000000000000 0.7500000000000000 0.5004437412294276	-0.630963
F	0.2500000000000000 0.2500000000000000 0.7576929287312356	-0.628957
F	0.2500000000000000 0.2500000000000000 -0.0004437412294278	-0.630964
Cd	0.2500000000000000 0.2500000000000000 0.1288654577552849	0.842143
Cd	0.7500000000000000 0.7500000000000000 0.3711345582447164	0.842143
Cd	0.7500000000000000 0.7500000000000000 0.8711345272447175	0.842146
Cd	0.2500000000000000 0.2500000000000000 0.6288654727552825	0.842145
Zr	0.2500000000000000 0.2500000000000000 0.3787109350545164	2.505937
Zr	0.7500000000000000 0.7500000000000000 0.1212890729454843	2.505937
Zr	0.7500000000000000 0.7500000000000000 0.6212890339454851	2.505937
Zr	0.2500000000000000 0.2500000000000000 0.8787109660545149	2.505937
	  	
