#======================================================================

# CRYSTAL DATA

#----------------------------------------------------------------------

data_VESTA_phase_1


_pd_phase_name                         ZrFSIX_14_Ni_i
_cell_length_a                         13.24554
_cell_length_b                         13.22913
_cell_length_c                         8.21408
_cell_angle_alpha                      86.56512
_cell_angle_beta                       86.57664
_cell_angle_gamma                      88.33159
_symmetry_space_group_name_H-M         P 1
_symmetry_Int_Tables_number            1

loop_
_symmetry_equiv_pos_as_xyz
   x, y, z

loop_
   _atom_site_label
   _atom_site_fract_x
   _atom_site_fract_y
   _atom_site_fract_z
   _atom_site_charge
C	0.5678959005290899 0.2724681598133848 0.3577398937165072	-0.173703
C	0.4630252788845390 0.2759149659567712 0.3617369108575558	0.109839
C	0.9355874316437027 0.2985104132800501 0.4061852115754886	-0.162472
C	0.0404912128999874 0.2907923908715419 0.3930039893350971	0.112568
C	0.2699978272014109 0.5662880327930165 0.3607415081533095	-0.174830
C	0.2745369973760224 0.4612683296594584 0.3646535300864678	0.111419
C	0.3049779821342121 0.9337861999898800 0.3990794128983642	-0.164199
C	0.2962688271557832 0.0387680436087176 0.3873007065931787	0.110873
C	0.9337466665629093 0.2304984791438961 0.1404794172458491	-0.172840
C	0.0386269847144841 0.2265337779458207 0.1365777181462888	0.109040
C	0.5662279633753954 0.1971382294794717 0.0978031861146753	-0.161762
C	0.4612586968333872 0.2046530561126723 0.1107109058966624	0.112933
C	0.1987725519502680 0.5640843372529603 0.0975574399878147	-0.164889
C	0.2075293949853999 0.4591182116434924 0.1104136536757940	0.111263
C	0.2275315259637352 0.9322960279376489 0.1408252135460974	-0.176152
C	0.2234501670458202 0.0373341383065821 0.1374965274214830	0.111931
C	0.4327451512231050 0.7292560621848985 0.6407880259918046	-0.172828
C	0.5376402735063570 0.7262889184962079 0.6364038574417781	0.110124
C	0.0642815122278122 0.7126964204018417 0.5861786660417208	-0.160070
C	0.9593029886500553 0.7163400915573246 0.6024212612192459	0.114230
C	0.7313098121925107 0.4337726256367772 0.6398301996996758	-0.172113
C	0.7281279084937150 0.5388159941600056 0.6355477624267518	0.109841
C	0.6992170428181336 0.0658005244206019 0.5949312994738981	-0.159238
C	0.7054420634817248 0.9606563911879735 0.6086549604042237	0.111559
C	0.0663363992988981 0.7680111194422116 0.8604235074515352	-0.171581
C	0.9614391023705378 0.7705990269966867 0.8655448228896767	0.109482
C	0.4343949421122298 0.7942916220266596 0.9087153396871477	-0.158889
C	0.5393747941390771 0.7897254675209665 0.8935368598364505	0.113813
C	0.7943933215803803 0.4353876595071777 0.9090876851353394	-0.161221
C	0.7889273563162735 0.5404873901423723 0.8944720772073920	0.112779
C	0.7713423560468241 0.0671863160309580 0.8576192294878965	-0.172699
C	0.7748355242974776 0.9621718387705719 0.8613601788909578	0.110005
C	0.6210735142616441 0.2334440108900306 0.2215002982364705	0.189738
C	0.8806809995830368 0.2657682752459949 0.2797350732331650	0.192192
C	0.2327814040482628 0.6191676017227482 0.2227986998593067	0.192283
C	0.2679295410346246 0.8790663250251827 0.2758560208940918	0.193037
C	0.3795817398624415 0.7627017547883577 0.7813640147733928	0.192246
C	0.1192752900602139 0.7399007430199644 0.7162370708570512	0.192851
C	0.7635112465515630 0.3805633565191552 0.7811740425920587	0.192041
C	0.7341859748297042 0.1205128327357991 0.7198700394527193	0.190339
H	0.6074278668322879 0.2964173988958573 0.4605869571357745	0.112891
H	0.4201274434797863 0.3044881415447737 0.4673652482877348	0.091597
H	0.8966453638310995 0.3291071455254977 0.5133176735002216	0.125786
H	0.0849828240251869 0.3146884000400635 0.4905323105041964	0.093545
H	0.2916391429290474 0.6062758588336444 0.4647408788434351	0.114103
H	0.3020935847955004 0.4185172700297069 0.4711856418028059	0.090385
H	0.3395759681970081 0.8946250443719018 0.5025719534943843	0.126265
H	0.3226626593471165 0.0832800462899967 0.4829232872420460	0.094516
H	0.8940523678591318 0.2097457522970456 0.0356159211530998	0.112518
H	0.0814557170296471 0.2004022275434859 0.0291791453687713	0.090573
H	0.6052652173477056 0.1636829580023614 0.9931492495026056	0.125778
H	0.4167959824459891 0.1781606006945658 0.0151118025576398	0.094058
H	0.1666444582250469 0.6028838305733668 0.9915131934534458	0.126922
H	0.1831678395960599 0.4144395058257607 0.0134752795325707	0.092989
H	0.2030868888418033 0.8926135302650255 0.0383947290708277	0.114961
H	0.1938767577068100 0.0803436487920897 0.0327685173275951	0.091517
H	0.3934183175774452 0.7082428761787025 0.5357236311663568	0.111619
H	0.5807754255169135 0.7003539548687363 0.5290431581113835	0.090916
H	0.1030351146692600 0.6891214998464354 0.4739427158848115	0.125155
H	0.9149748514301269 0.6945515479255100 0.5034451968743525	0.091778
H	0.7118443250648978 0.3942818927595685 0.5340317072072585	0.111547
H	0.7032874847548548 0.5818658899346947 0.5273960765849007	0.090894
H	0.6676748649521235 0.1050525584877430 0.4887813467606165	0.125535
H	0.6791820590952036 0.9162645231656069 0.5128165290184540	0.094997
H	0.1059001336396128 0.7852473218528285 0.9674305176647744	0.109864
H	0.9185127696363692 0.7928191844284140 0.9754267861089622	0.089493
H	0.3953947394836018 0.8221727338760366 0.0178268556845050	0.125147
H	0.5836577447430890 0.8145009326549543 -0.0094701528227474	0.092588
H	0.8219889388411872 0.3962799817380360 0.0184558485556686	0.125714
H	0.8124043371588140 0.5848416008845639 -0.0076388191588222	0.092514
H	0.7944934552531623 0.1066248220580423 0.9611627437998105	0.112398
H	0.8030321134092612 0.9189630013288589 0.9670089539327266	0.091790
N	0.7739881698609596 0.2751431322860970 0.2986531858275098	-0.108043
N	0.2788457615656330 0.7722853939451421 0.2926672129390820	-0.109978
N	0.7278143677307515 0.2237615889870958 0.2028573008331896	-0.106009
N	0.2220890524242745 0.7258953736572006 0.2053274561361799	-0.107266
N	0.2259397069495691 0.7340064602478161 0.6921586337694514	-0.105009
N	0.7261476042261831 0.2274124569542670 0.6988212341195933	-0.105674
N	0.2728657550908132 0.7692490839677676 0.8048995377839027	-0.103622
N	0.7709693486065363 0.2737473602524211 0.8027244618284276	-0.104842
N	0.4099951787931105 0.2439742218115665 0.2399835158686885	-0.232046
N	0.0917012298318866 0.2546168504041741 0.2610457804153420	-0.232852
N	0.2454200367029263 0.4080219202340762 0.2411668239794256	-0.233235
N	0.2557618877927164 0.0901913491616020 0.2591317588971402	-0.233624
N	0.5906178937103197 0.7551023958577183 0.7605886017617473	-0.230165
N	0.9081834870977972 0.7461734594417770 0.7388794466923695	-0.230754
N	0.7552157114829379 0.5918238390493340 0.7608071286430163	-0.232273
N	0.7435621852810125 0.9092975591140300 0.7388565082869508	-0.231617
F	0.3601301530221324 0.1368168453753057 0.7528699247639100	-0.669388
F	0.1429333295376878 0.3604225132723695 0.7489591460795065	-0.668551
F	0.3601152671805816 0.3545314131874368 0.7065218053539524	-0.662091
F	0.1425505954087892 0.1437001310953041 0.7949211053178735	-0.661476
F	0.6363889045981596 0.8587969123738879 0.2531140681819786	-0.666615
F	0.8612985770508162 0.6430421836476673 0.2497993124670287	-0.664863
F	0.6447857263645883 0.6410143783575353 0.2955758362405147	-0.658911
F	0.8541733558544574 0.8594923111950873 0.2029562488856264	-0.659290
F	0.2467153884670353 0.2425502783406989 0.4983608419043600	-0.621028
F	0.2570686717434119 0.2544369560254656 0.0030470402219933	-0.620329
F	0.7544538229458237 0.7574390629270389 0.5019771308578873	-0.619020
F	0.7424724413743025 0.7448591526997036 -0.0020332647126079	-0.619182
Zr	0.2516930593299013 0.2486799607950525 0.7507964595680010	2.466654
Zr	0.7487858761670272 0.7509474138618696 0.2499453727011121	2.461643
Ni	0.2509306837949952 0.2490177154339359 0.2505956508516385	0.777457
Ni	0.7492546710549668 0.7506297272998421 0.7498532509506602	0.774709
	  	
