#======================================================================

# CRYSTAL DATA

#----------------------------------------------------------------------

data_VESTA_phase_1


_pd_phase_name                         ZrFSIX_2_Zn
_cell_length_a                         13.97090
_cell_length_b                         13.97090
_cell_length_c                         8.25180
_cell_angle_alpha                      90
_cell_angle_beta                       90
_cell_angle_gamma                      90
_symmetry_space_group_name_H-M         P 1
_symmetry_Int_Tables_number            1

loop_
_symmetry_equiv_pos_as_xyz
   x, y, z

loop_
   _atom_site_label
   _atom_site_fract_x
   _atom_site_fract_y
   _atom_site_fract_z
   _atom_site_charge
C	0.5309685414551519 0.7037139002289612 0.1304564634611276	0.101916
C	0.5314266431087445 0.8030524065716252 0.1361500818943012	-0.163949
C	0.4690315285448469 0.2962860997710389 0.1304564634611276	0.101910
C	0.4685733218912563 0.1969475754283731 0.1361500818943012	-0.163953
C	0.2962860997710389 0.5309685414551519 0.1304564634611276	0.101917
C	0.1969475754283731 0.5314266431087445 0.1361500818943012	-0.163949
C	0.7037139002289612 0.4690315285448469 0.1304564634611276	0.101910
C	0.8030524065716252 0.4685733218912563 0.1361500818943012	-0.163953
C	0.4690315285448469 0.7037139002289612 0.8695435365388721	0.101913
C	0.4685733218912563 0.8030524065716252 0.8638498881056970	-0.163955
C	0.5309685414551519 0.2962860997710389 0.8695435365388721	0.101915
C	0.5314266431087445 0.1969475754283731 0.8638498881056970	-0.163946
C	0.7037139002289612 0.5309685414551519 0.8695435365388721	0.101915
C	0.8030524065716252 0.5314266431087445 0.8638498881056970	-0.163946
C	0.2962860997710389 0.4690315285448469 0.8695435365388721	0.101913
C	0.1969475754283731 0.4685733218912563 0.8638498881056970	-0.163954
C	0.5000000000000000 0.1448956488140483 -0.0000000000000000	0.173067
C	0.5000000000000000 0.0436330596296033 -0.0000000000000000	-0.091395
C	0.5000000000000000 0.8551043511859516 -0.0000000000000000	0.173035
C	0.5000000000000000 0.9563668833704024 -0.0000000000000000	-0.091146
C	0.8551043511859516 0.5000000000000000 -0.0000000000000000	0.173067
C	0.9563668833704024 0.5000000000000000 -0.0000000000000000	-0.091395
C	0.1448956488140483 0.5000000000000000 -0.0000000000000000	0.173035
C	0.0436330596296033 0.5000000000000000 -0.0000000000000000	-0.091146
H	0.5558581507822611 0.6620541966853758 0.2341196639672573	0.093942
H	0.5562019575475655 0.8395931444334317 0.2448547010563689	0.131139
H	0.4441418492177391 0.3379457333146256 0.2341196639672573	0.093945
H	0.4437980774524337 0.1604067855665697 0.2448547010563689	0.131141
H	0.3379457333146256 0.5558581507822611 0.2341196639672573	0.093942
H	0.1604067855665697 0.5562019575475655 0.2448547010563689	0.131139
H	0.6620541966853758 0.4441418492177391 0.2341196639672573	0.093945
H	0.8395931444334317 0.4437980774524337 0.2448547010563689	0.131141
H	0.4441418492177391 0.6620541966853758 0.7658803360327424	0.093945
H	0.4437980774524337 0.8395931444334317 0.7551453289436334	0.131138
H	0.5558581507822611 0.3379457333146256 0.7658803360327424	0.093942
H	0.5562019575475655 0.1604067855665697 0.7551453289436334	0.131138
H	0.6620541966853758 0.5558581507822611 0.7658803360327424	0.093942
H	0.8395931444334317 0.5562019575475655 0.7551453289436334	0.131139
H	0.3379457333146256 0.4441418492177391 0.7658803360327424	0.093945
H	0.1604067855665697 0.4437980774524337 0.7551453289436334	0.131138
Zn	0.5000000000000000 0.5000000000000000 -0.0000000000000000	0.749229
Zr	0.5000000000000000 0.5000000000000000 0.5000000000000000	2.465573
F	0.5000000000000000 0.5000000000000000 0.7506216382726462	-0.607976
F	0.5000000000000000 0.5000000000000000 0.2493783917273490	-0.607976
F	0.6031158261732320 0.6031158261732320 0.5000000000000000	-0.677550
F	0.3968842088267673 0.6031158261732320 0.5000000000000000	-0.677551
F	0.3968842088267673 0.3968842088267673 0.5000000000000000	-0.677551
F	0.6031158261732320 0.3968842088267673 0.5000000000000000	-0.677551
N	0.5000000000000000 0.3454572053531537 -0.0000000000000000	-0.230035
N	0.5000000000000000 0.6545427596468469 -0.0000000000000000	-0.230032
N	0.6545427596468469 0.5000000000000000 -0.0000000000000000	-0.230033
N	0.3454572053531537 0.5000000000000000 -0.0000000000000000	-0.230034
	  	
