#======================================================================

# CRYSTAL DATA

#----------------------------------------------------------------------

data_VESTA_phase_1


_pd_phase_name                         ZrFSIX_5_Ni_i
_cell_length_a                         19.53015
_cell_length_b                         19.53015
_cell_length_c                         17.22962
_cell_angle_alpha                      90
_cell_angle_beta                       90
_cell_angle_gamma                      90
_symmetry_space_group_name_H-M         P 1
_symmetry_Int_Tables_number            1

loop_
_symmetry_equiv_pos_as_xyz
   x, y, z

loop_
   _atom_site_label
   _atom_site_fract_x
   _atom_site_fract_y
   _atom_site_fract_z
   _atom_site_charge
F	0.3149882936099688 0.1675560542107418 0.3514505760573682	-0.695048
F	0.1850116943900300 0.3324439457892585 0.3514505760573682	-0.695053
F	0.3324439457892585 0.3149882936099688 0.3514505760573682	-0.695051
F	0.1675560542107418 0.1850116943900300 0.3514505760573682	-0.695050
F	0.6850117303900261 0.6675560782107431 0.1485494239426320	-0.695051
F	0.8149882696099739 0.8324439217892569 0.1485494239426320	-0.695052
F	0.6675560782107431 0.8149882696099739 0.1485494239426320	-0.695052
F	0.8324439217892569 0.6850117303900261 0.1485494239426320	-0.695051
F	0.6850117303900261 0.8324439217892569 0.6485494559426347	-0.695059
F	0.8149882696099739 0.6675560782107431 0.6485494559426347	-0.695054
F	0.6675560782107431 0.6850117303900261 0.6485494559426347	-0.695056
F	0.8324439217892569 0.8149882696099739 0.6485494559426347	-0.695056
F	0.3149882936099688 0.3324439457892584 0.8514505440573653	-0.695056
F	0.1850116943900300 0.1675560542107418 0.8514505440573653	-0.695055
F	0.3324439457892584 0.1850116943900300 0.8514505440573653	-0.695055
F	0.1675560542107418 0.3149882936099688 0.8514505440573653	-0.695056
F	0.2500000000000000 0.2500000000000000 0.4701051260572688	-0.639668
F	0.2500000000000000 0.2500000000000000 0.2329547123624515	-0.639789
F	0.7500000000000000 0.7500000000000000 0.0298949009427300	-0.639675
F	0.7500000000000000 0.7500000000000000 0.2670452716375474	-0.639789
F	0.7500000000000000 0.7500000000000000 0.5298949049427307	-0.639681
F	0.7500000000000000 0.7500000000000000 0.7670452716375471	-0.639789
F	0.2500000000000000 0.2500000000000000 0.9701050950572693	-0.639674
F	0.2500000000000000 0.2500000000000000 0.7329547283624529	-0.639789
N	0.3488453287273020 0.2471108274816909 0.6016969787857823	-0.163588
N	0.1511546712726979 0.2528891725183091 0.6016969787857823	-0.163587
N	0.2528891725183091 0.3488453287273020 0.6016969787857823	-0.163588
N	0.2471108274816909 0.1511546712726979 0.6016969787857823	-0.163587
N	0.6511546952727001 0.7471108034816889 0.8983030212142177	-0.163602
N	0.8488453047272999 0.7528891965183111 0.8983030212142177	-0.163603
N	0.7471108034816889 0.8488453047272999 0.8983030212142177	-0.163603
N	0.7528891965183111 0.6511546952727001 0.8983030212142177	-0.163601
N	0.6511546952727001 0.7528891965183111 0.3983030522142166	-0.163600
N	0.8488453047272999 0.7471108034816889 0.3983030522142166	-0.163601
N	0.7471108034816889 0.6511546952727001 0.3983030522142166	-0.163600
N	0.7528891965183111 0.8488453047272999 0.3983030522142166	-0.163601
N	0.3488453287273020 0.2528891725183091 0.1016969787857824	-0.163586
N	0.1511546712726979 0.2471108274816909 0.1016969787857824	-0.163585
N	0.2528891725183091 0.1511546712726979 0.1016969787857824	-0.163585
N	0.2471108274816909 0.3488453287273020 0.1016969787857824	-0.163587
C	0.3827821024990464 0.2190809508035658 0.6621489620156024	0.091877
C	0.4537564349632802 0.2182842073331282 0.6657613081112528	-0.169982
C	0.4924100899619452 0.2473079401715137 0.6055682434883314	0.107021
C	0.4560601865601058 0.2757174459447225 0.5430893693030014	-0.173077
C	0.3850290260604706 0.2747364984261789 0.5427384411532227	0.092175
C	0.5677262533247168 0.2481661411024634 0.6076289727106882	0.053346
C	0.6046562445313762 0.1918902159286650 0.6364670191574009	-0.125274
C	0.6758295652033444 0.1924221854249310 0.6370472339541752	-0.127158
C	0.7123137713903299 0.2497706255899171 0.6103757956490843	0.068903
C	0.6753644825266728 0.3064473326237214 0.5827229201116544	-0.122836
C	0.6042177386340930 0.3053980320307469 0.5806109935659942	-0.123064
C	0.1172178735009584 0.2809190731964364 0.6621489620156024	0.091876
C	0.0462435050367219 0.2817158166668738 0.6657613081112528	-0.169983
C	0.0075898890380569 0.2526920598284865 0.6055682434883314	0.107019
C	0.0439398404398929 0.2242825540552775 0.5430893693030014	-0.173072
C	0.1149709379395264 0.2252635255738228 0.5427384411532227	0.092172
C	0.9322736986752863 0.2518338348975347 0.6076289727106882	0.053350
C	0.8953438034686206 0.3081098190713342 0.6364670191574009	-0.125275
C	0.8241704347966556 0.3075778265750627 0.6370472339541752	-0.127158
C	0.7876862286096701 0.2502293504100807 0.6103757956490843	0.068901
C	0.8246355644733275 0.1935526673762787 0.5827229201116544	-0.122831
C	0.8957823573659078 0.1946020029692525 0.5806109935659942	-0.123065
C	0.2809190731964364 0.3827821024990464 0.6621489620156024	0.091878
C	0.2817158166668738 0.4537564349632802 0.6657613081112528	-0.169984
C	0.2526920598284865 0.4924100899619452 0.6055682434883314	0.107020
C	0.2242825540552775 0.4560601865601058 0.5430893693030014	-0.173074
C	0.2252635255738228 0.3850290260604706 0.5427384411532227	0.092176
C	0.2518338348975347 0.5677262533247168 0.6076289727106882	0.053346
C	0.3081098190713342 0.6046562445313762 0.6364670191574009	-0.125275
C	0.3075778265750627 0.6758295652033444 0.6370472339541752	-0.127159
C	0.2502293504100807 0.7123137713903299 0.6103757956490843	0.068900
C	0.1935526673762787 0.6753644825266728 0.5827229201116544	-0.122835
C	0.1946020029692525 0.6042177386340930 0.5806109935659942	-0.123066
C	0.2190809508035658 0.1172178735009584 0.6621489620156024	0.091876
C	0.2182842073331282 0.0462435050367219 0.6657613081112528	-0.169980
C	0.2473079401715137 0.0075898890380569 0.6055682434883314	0.107020
C	0.2757174459447225 0.0439398404398929 0.5430893693030014	-0.173074
C	0.2747364984261789 0.1149709379395264 0.5427384411532227	0.092172
C	0.2481661411024634 0.9322736986752863 0.6076289727106882	0.053350
C	0.1918902159286650 0.8953438034686206 0.6364670191574009	-0.125275
C	0.1924221854249310 0.8241704347966556 0.6370472339541752	-0.127158
C	0.2497706255899171 0.7876862286096701 0.6103757956490843	0.068903
C	0.3064473326237214 0.8246355644733275 0.5827229201116544	-0.122833
C	0.3053980320307469 0.8957823573659078 0.5806109935659942	-0.123064
C	0.6172178735009578 0.7190809988035629 0.8378510379843976	0.091876
C	0.5462435170367227 0.7182842313331234 0.8342386918887472	-0.169981
C	0.5075899100380552 0.7473079881715107 0.8944317565116686	0.107015
C	0.5439399094398947 0.7757173979447184 0.9569106306969986	-0.173062
C	0.6149709979395240 0.7747365224261740 0.9572615588467773	0.092156
C	0.4322737466752835 0.7481662131024621 0.8923710272893118	0.053359
C	0.3953437554686240 0.6918901809286659 0.8635329808425991	-0.125273
C	0.3241703627966493 0.6924221494249352 0.8629527660458248	-0.127169
C	0.2876862766096741 0.7497706495899191 0.8896242043509157	0.068935
C	0.3246354694733229 0.8064473326237208 0.9172770798883456	-0.122824
C	0.3957822853659019 0.8053979610307443 0.9193890064340058	-0.123116
C	0.8827821264990422 0.7809190011964371 0.8378510379843976	0.091881
C	0.9537564829632773 0.7817157686668766 0.8342386918887472	-0.169986
C	0.9924101379619417 0.7526920118284893 0.8944317565116686	0.107017
C	0.9560601385601093 0.7242826020552816 0.9569106306969986	-0.173059
C	0.8850290020604760 0.7252634775738260 0.9572615588467773	0.092158
C	0.0677262893247126 0.7518337868975379 0.8923710272893118	0.053358
C	0.1046562325313749 0.8081098190713341 0.8635329808425991	-0.125275
C	0.1758296132033486 0.8075778025750679 0.8629527660458248	-0.127170
C	0.2123137233903259 0.7502293504100809 0.8896242043509157	0.068937
C	0.1753645065266750 0.6935526673762792 0.9172770798883456	-0.122823
C	0.1042177146340980 0.6946019919692553 0.9193890064340058	-0.123120
C	0.7190809988035629 0.8827821264990422 0.8378510379843976	0.091882
C	0.7182842313331234 0.9537564829632773 0.8342386918887472	-0.169983
C	0.7473079881715107 0.9924101379619417 0.8944317565116686	0.107016
C	0.7757173979447184 0.9560601385601093 0.9569106306969986	-0.173062
C	0.7747365224261740 0.8850290020604760 0.9572615588467773	0.092158
C	0.7481662131024621 0.0677262893247126 0.8923710272893118	0.053358
C	0.6918901809286659 0.1046562325313749 0.8635329808425991	-0.125276
C	0.6924221494249352 0.1758296132033486 0.8629527660458248	-0.127168
C	0.7497706495899191 0.2123137233903259 0.8896242043509157	0.068935
C	0.8064473326237208 0.1753645065266750 0.9172770798883456	-0.122823
C	0.8053979610307443 0.1042177146340980 0.9193890064340058	-0.123119
C	0.7809190011964371 0.6172178735009578 0.8378510379843976	0.091877
C	0.7817157686668766 0.5462435170367227 0.8342386918887472	-0.169983
C	0.7526920118284893 0.5075899100380552 0.8944317565116686	0.107016
C	0.7242826020552816 0.5439399094398947 0.9569106306969986	-0.173058
C	0.7252634775738260 0.6149709979395240 0.9572615588467773	0.092156
C	0.7518337868975379 0.4322737466752835 0.8923710272893118	0.053359
C	0.8081098190713341 0.3953437554686240 0.8635329808425991	-0.125273
C	0.8075778025750679 0.3241703627966493 0.8629527660458248	-0.127170
C	0.7502293504100809 0.2876862766096741 0.8896242043509157	0.068936
C	0.6935526673762792 0.3246354694733229 0.9172770798883456	-0.122824
C	0.6946019919692553 0.3957822853659019 0.9193890064340058	-0.123117
C	0.6172178735009578 0.7809190011964371 0.3378510689843968	0.091879
C	0.5462435170367227 0.7817157686668766 0.3342386918887469	-0.169984
C	0.5075899100380552 0.7526920118284893 0.3944317565116683	0.107015
C	0.5439399094398947 0.7242826020552816 0.4569106616970046	-0.173057
C	0.6149709979395240 0.7252634775738260 0.4572615588467767	0.092155
C	0.4322737466752835 0.7518337868975379 0.3923710272893124	0.053359
C	0.3953437554686240 0.8081098190713341 0.3635329498425999	-0.125272
C	0.3241703627966493 0.8075778025750679 0.3629527970458237	-0.127170
C	0.2876862766096741 0.7502293504100809 0.3896241103509149	0.068936
C	0.3246354694733229 0.6935526673762792 0.4172771108883450	-0.122822
C	0.3957822853659019 0.6946019919692553 0.4193890064340059	-0.123117
C	0.8827821264990422 0.7190809988035629 0.3378510689843968	0.091879
C	0.9537564829632773 0.7182842313331234 0.3342386918887469	-0.169981
C	0.9924101379619417 0.7473079881715107 0.3944317565116683	0.107018
C	0.9560601385601093 0.7757173979447184 0.4569106616970046	-0.173063
C	0.8850290020604760 0.7747365224261740 0.4572615588467767	0.092159
C	0.0677262893247126 0.7481662131024621 0.3923710272893124	0.053358
C	0.1046562325313749 0.6918901809286659 0.3635329498425999	-0.125275
C	0.1758296132033486 0.6924221494249352 0.3629527970458237	-0.127171
C	0.2123137233903259 0.7497706495899191 0.3896241103509149	0.068937
C	0.1753645065266750 0.8064473326237208 0.4172771108883450	-0.122826
C	0.1042177146340980 0.8053979610307443 0.4193890064340059	-0.123118
C	0.7190809988035629 0.6172178735009578 0.3378510689843968	0.091878
C	0.7182842313331234 0.5462435170367227 0.3342386918887469	-0.169981
C	0.7473079881715107 0.5075899100380552 0.3944317565116683	0.107016
C	0.7757173979447184 0.5439399094398947 0.4569106616970046	-0.173060
C	0.7747365224261740 0.6149709979395240 0.4572615588467767	0.092155
C	0.7481662131024621 0.4322737466752835 0.3923710272893124	0.053359
C	0.6918901809286659 0.3953437554686240 0.3635329498425999	-0.125271
C	0.6924221494249352 0.3241703627966493 0.3629527970458237	-0.127170
C	0.7497706495899191 0.2876862766096741 0.3896241103509149	0.068939
C	0.8064473326237208 0.3246354694733229 0.4172771108883450	-0.122823
C	0.8053979610307443 0.3957822853659019 0.4193890064340059	-0.123116
C	0.7809190011964371 0.8827821264990422 0.3378510689843968	0.091881
C	0.7817157686668766 0.9537564829632773 0.3342386918887469	-0.169984
C	0.7526920118284893 0.9924101379619417 0.3944317565116683	0.107016
C	0.7242826020552816 0.9560601385601093 0.4569106616970046	-0.173060
C	0.7252634775738260 0.8850290020604760 0.4572615588467767	0.092160
C	0.7518337868975379 0.0677262893247126 0.3923710272893124	0.053358
C	0.8081098190713341 0.1046562325313749 0.3635329498425999	-0.125275
C	0.8075778025750679 0.1758296132033486 0.3629527970458237	-0.127172
C	0.7502293504100809 0.2123137233903259 0.3896241103509149	0.068935
C	0.6935526673762792 0.1753645065266750 0.4172771108883450	-0.122824
C	0.6946019919692553 0.1042177146340980 0.4193890064340059	-0.123119
C	0.3827821024990464 0.2809190731964364 0.1621489470156044	0.091879
C	0.4537564349632802 0.2817158166668738 0.1657612771112541	-0.169985
C	0.4924100899619452 0.2526920598284865 0.1055682434883316	0.107021
C	0.4560601865601058 0.2242825540552775 0.0430893343030021	-0.173072
C	0.3850290260604706 0.2252635255738228 0.0427384331532225	0.092175
C	0.5677262533247168 0.2518338348975347 0.1076289647106871	0.053346
C	0.6046562445313762 0.3081098190713342 0.1364670191574009	-0.125273
C	0.6758295652033444 0.3075778265750627 0.1370471869541748	-0.127159
C	0.7123137713903299 0.2502293504100807 0.1103758666490866	0.068904
C	0.6753644825266728 0.1935526673762787 0.0827229041116528	-0.122835
C	0.6042177386340930 0.1946020029692525 0.0806110085659918	-0.123065
C	0.1172178735009584 0.2190809508035658 0.1621489470156044	0.091875
C	0.0462435050367219 0.2182842073331282 0.1657612771112541	-0.169978
C	0.0075898890380569 0.2473079401715137 0.1055682434883316	0.107020
C	0.0439398404398929 0.2757174459447225 0.0430893343030021	-0.173076
C	0.1149709379395264 0.2747364984261789 0.0427384331532225	0.092173
C	0.9322736986752863 0.2481661411024634 0.1076289647106871	0.053350
C	0.8953438034686206 0.1918902159286650 0.1364670191574009	-0.125276
C	0.8241704347966556 0.1924221854249310 0.1370471869541748	-0.127160
C	0.7876862286096701 0.2497706255899171 0.1103758666490866	0.068901
C	0.8246355644733275 0.3064473326237214 0.0827229041116528	-0.122834
C	0.8957823573659078 0.3053980320307469 0.0806110085659918	-0.123062
C	0.2809190731964364 0.1172178735009584 0.1621489470156044	0.091875
C	0.2817158166668738 0.0462435050367219 0.1657612771112541	-0.169981
C	0.2526920598284865 0.0075898890380569 0.1055682434883316	0.107021
C	0.2242825540552775 0.0439398404398929 0.0430893343030021	-0.173072
C	0.2252635255738228 0.1149709379395264 0.0427384331532225	0.092174
C	0.2518338348975347 0.9322736986752863 0.1076289647106871	0.053350
C	0.3081098190713342 0.8953438034686206 0.1364670191574009	-0.125275
C	0.3075778265750627 0.8241704347966556 0.1370471869541748	-0.127161
C	0.2502293504100807 0.7876862286096701 0.1103758666490866	0.068904
C	0.1935526673762787 0.8246355644733275 0.0827229041116528	-0.122835
C	0.1946020029692525 0.8957823573659078 0.0806110085659918	-0.123064
C	0.2190809508035658 0.3827821024990464 0.1621489470156044	0.091880
C	0.2182842073331282 0.4537564349632802 0.1657612771112541	-0.169982
C	0.2473079401715137 0.4924100899619452 0.1055682434883316	0.107020
C	0.2757174459447225 0.4560601865601058 0.0430893343030021	-0.173075
C	0.2747364984261789 0.3850290260604706 0.0427384331532225	0.092175
C	0.2481661411024634 0.5677262533247168 0.1076289647106871	0.053346
C	0.1918902159286650 0.6046562445313762 0.1364670191574009	-0.125274
C	0.1924221854249310 0.6758295652033444 0.1370471869541748	-0.127158
C	0.2497706255899171 0.7123137713903299 0.1103758666490866	0.068901
C	0.3064473326237214 0.6753644825266728 0.0827229041116528	-0.122834
C	0.3053980320307469 0.6042177386340930 0.0806110085659918	-0.123064
H	0.3519363542254713 0.1982250346151599 0.7092780362408176	0.105833
H	0.4782511459960796 0.1964857406997941 0.7168642745492299	0.122331
H	0.4828223156716164 0.2977750284423523 0.4935513883815329	0.121124
H	0.3560192523279325 0.2955699730527073 0.4941839222454519	0.106651
H	0.5771475266080731 0.1468823692875686 0.6572580124357775	0.101511
H	0.7038844312789468 0.1484227251185019 0.6595657932448342	0.104774
H	0.7029766250972236 0.3509491504458404 0.5607893878502627	0.103675
H	0.5764353396341805 0.3498873682223327 0.5589234281737048	0.105215
H	0.1480636097745257 0.3017749893848422 0.7092780362408176	0.105831
H	0.0217488600039138 0.3035142833002079 0.7168642745492299	0.122333
H	0.0171776733283860 0.2022249835576491 0.4935513883815329	0.121121
H	0.1439807716720693 0.2044300149472919 0.4941839222454519	0.106651
H	0.9228525203919272 0.3531176307124386 0.6572580124357775	0.101514
H	0.7961155687210532 0.3515772628814973 0.6595657932448342	0.104772
H	0.7970233749027764 0.1490508615541607 0.5607893878502627	0.103679
H	0.9235646603658195 0.1501126197776737 0.5589234281737048	0.105218
H	0.3017749893848422 0.3519363542254713 0.7092780362408176	0.105833
H	0.3035142833002079 0.4782511459960796 0.7168642745492299	0.122333
H	0.2022249835576491 0.4828223156716164 0.4935513883815329	0.121123
H	0.2044300149472919 0.3560192523279325 0.4941839222454519	0.106651
H	0.3531176307124386 0.5771475266080731 0.6572580124357775	0.101511
H	0.3515772628814973 0.7038844312789468 0.6595657932448342	0.104773
H	0.1490508615541607 0.7029766250972236 0.5607893878502627	0.103677
H	0.1501126197776737 0.5764353396341805 0.5589234281737048	0.105218
H	0.1982250346151599 0.1480636097745257 0.7092780362408176	0.105832
H	0.1964857406997941 0.0217488600039138 0.7168642745492299	0.122330
H	0.2977750284423523 0.0171776733283860 0.4935513883815329	0.121122
H	0.2955699730527073 0.1439807716720693 0.4941839222454519	0.106651
H	0.1468823692875686 0.9228525203919272 0.6572580124357775	0.101515
H	0.1484227251185019 0.7961155687210532 0.6595657932448342	0.104774
H	0.3509491504458404 0.7970233749027764 0.5607893878502627	0.103676
H	0.3498873682223327 0.9235646603658195 0.5589234281737048	0.105215
H	0.6480635977745249 0.6982250346151595 0.7907219637591824	0.105833
H	0.5217488060039162 0.6964857166997928 0.7831357254507701	0.122330
H	0.5171776843283833 0.7977750284423517 0.0064485966184621	0.121121
H	0.6439807476720668 0.7955699490527046 0.0058161057545505	0.106670
H	0.4228524733919271 0.6468823692875617 0.8427419875642225	0.101512
H	0.2961155927210550 0.6484227371185032 0.8404342067551658	0.104775
H	0.2970233749027760 0.8509491504458403 0.9392106121497373	0.103678
H	0.4235647083658171 0.8498873922223270 0.9410765718262952	0.105225
H	0.8519364502254719 0.8017750133848445 0.7907219637591824	0.105833
H	0.9782510979960830 0.8035142833002072 0.7831357254507701	0.122332
H	0.9828222676716198 0.7022249715576483 0.0064485966184621	0.121122
H	0.8560191563279324 0.7044300509472954 0.0058161057545505	0.106671
H	0.0771475266080731 0.8531176307124383 0.8427419875642225	0.101510
H	0.2038844072789448 0.8515772628814968 0.8404342067551658	0.104772
H	0.2029766250972238 0.6490508975541566 0.9392106121497373	0.103678
H	0.0764353336341792 0.6501126077776730 0.9410765718262952	0.105224
H	0.6982250346151595 0.8519364502254719 0.7907219637591824	0.105833
H	0.6964857166997928 0.9782510979960830 0.7831357254507701	0.122332
H	0.7977750284423517 0.9828222676716198 0.0064485966184621	0.121124
H	0.7955699490527046 0.8560191563279324 0.0058161057545505	0.106671
H	0.6468823692875617 0.0771475266080731 0.8427419875642225	0.101513
H	0.6484227371185032 0.2038844072789448 0.8404342067551658	0.104773
H	0.8509491504458403 0.2029766250972238 0.9392106121497373	0.103677
H	0.8498873922223270 0.0764353336341792 0.9410765718262952	0.105224
H	0.8017750133848445 0.6480635977745249 0.7907219637591824	0.105833
H	0.8035142833002072 0.5217488060039162 0.7831357254507701	0.122331
H	0.7022249715576483 0.5171776843283833 0.0064485966184622	0.121119
H	0.7044300509472954 0.6439807476720668 0.0058161057545505	0.106670
H	0.8531176307124383 0.4228524733919271 0.8427419875642225	0.101510
H	0.8515772628814968 0.2961155927210550 0.8404342067551658	0.104774
H	0.6490508975541566 0.2970233749027760 0.9392106121497373	0.103679
H	0.6501126077776730 0.4235647083658171 0.9410765718262952	0.105226
H	0.6480635977745249 0.8017750133848445 0.2907219957591776	0.105831
H	0.5217488060039162 0.8035142833002072 0.2831357564507695	0.122331
H	0.5171776843283833 0.7022249715576483 0.5064485806184673	0.121118
H	0.6439807476720668 0.7044300509472954 0.5058160777545482	0.106671
H	0.4228524733919271 0.8531176307124383 0.3427419565642233	0.101511
H	0.2961155927210550 0.8515772628814968 0.3404341747551633	0.104774
H	0.2970233749027760 0.6490508975541566 0.4392106431497358	0.103680
H	0.4235647083658171 0.6501126077776730 0.4410766338263000	0.105225
H	0.8519364502254719 0.6982250346151595 0.2907219957591776	0.105833
H	0.9782510979960830 0.6964857166997928 0.2831357564507695	0.122329
H	0.9828222676716198 0.7977750284423517 0.5064485806184673	0.121121
H	0.8560191563279324 0.7955699490527046 0.5058160777545482	0.106670
H	0.0771475266080731 0.6468823692875617 0.3427419565642233	0.101510
H	0.2038844072789448 0.6484227371185032 0.3404341747551633	0.104774
H	0.2029766250972238 0.8509491504458403 0.4392106431497358	0.103675
H	0.0764353336341792 0.8498873922223270 0.4410766338263000	0.105222
H	0.6982250346151595 0.6480635977745249 0.2907219957591776	0.105831
H	0.6964857166997928 0.5217488060039162 0.2831357564507695	0.122328
H	0.7977750284423517 0.5171776843283833 0.5064485806184673	0.121119
H	0.7955699490527046 0.6439807476720668 0.5058160777545482	0.106671
H	0.6468823692875617 0.4228524733919271 0.3427419565642233	0.101512
H	0.6484227371185032 0.2961155927210550 0.3404341747551633	0.104775
H	0.8509491504458403 0.2970233749027760 0.4392106431497358	0.103678
H	0.8498873922223270 0.4235647083658171 0.4410766338263000	0.105223
H	0.8017750133848445 0.8519364502254719 0.2907219957591776	0.105832
H	0.8035142833002072 0.9782510979960830 0.2831357564507695	0.122331
H	0.7022249715576483 0.9828222676716198 0.5064485806184673	0.121120
H	0.7044300509472954 0.8560191563279324 0.5058160777545482	0.106670
H	0.8531176307124383 0.0771475266080731 0.3427419565642233	0.101510
H	0.8515772628814968 0.2038844072789448 0.3404341747551633	0.104773
H	0.6490508975541566 0.2029766250972238 0.4392106431497358	0.103677
H	0.6501126077776730 0.0764353336341792 0.4410766338263000	0.105225
H	0.3519363542254713 0.3017749893848422 0.2092780362408178	0.105831
H	0.4782511459960796 0.3035142833002079 0.2168642895492346	0.122331
H	0.4828223156716164 0.2022249835576491 0.9935514503815388	0.121122
H	0.3560192523279325 0.2044300149472919 0.9941838912454528	0.106652
H	0.5771475266080731 0.3531176307124386 0.1572580274357753	0.101510
H	0.7038844312789468 0.3515772628814973 0.1595658402448346	0.104772
H	0.7029766250972236 0.1490508615541607 0.0607893488502633	0.103677
H	0.5764353396341805 0.1501126197776737 0.0589233891737054	0.105215
H	0.1480636097745257 0.1982250346151599 0.2092780362408178	0.105831
H	0.0217488600039138 0.1964857406997941 0.2168642895492346	0.122329
H	0.0171776733283860 0.2977750284423523 0.9935514503815388	0.121120
H	0.1439807716720693 0.2955699730527073 0.9941838912454528	0.106650
H	0.9228525203919272 0.1468823692875686 0.1572580274357753	0.101514
H	0.7961155687210532 0.1484227251185019 0.1595658402448346	0.104773
H	0.7970233749027764 0.3509491504458404 0.0607893488502633	0.103676
H	0.9235646603658195 0.3498873682223327 0.0589233891737054	0.105215
H	0.3017749893848422 0.1480636097745257 0.2092780362408178	0.105831
H	0.3035142833002079 0.0217488600039138 0.2168642895492346	0.122329
H	0.2022249835576491 0.0171776733283860 0.9935514503815388	0.121119
H	0.2044300149472919 0.1439807716720693 0.9941838912454528	0.106650
H	0.3531176307124386 0.9228525203919272 0.1572580274357753	0.101512
H	0.3515772628814973 0.7961155687210532 0.1595658402448346	0.104773
H	0.1490508615541607 0.7970233749027764 0.0607893488502633	0.103678
H	0.1501126197776737 0.9235646603658195 0.0589233891737054	0.105216
H	0.1982250346151599 0.3519363542254713 0.2092780362408178	0.105831
H	0.1964857406997941 0.4782511459960796 0.2168642895492346	0.122330
H	0.2977750284423523 0.4828223156716164 0.9935514503815388	0.121123
H	0.2955699730527073 0.3560192523279325 0.9941838912454528	0.106652
H	0.1468823692875686 0.5771475266080731 0.1572580274357753	0.101513
H	0.1484227251185019 0.7038844312789468 0.1595658402448346	0.104772
H	0.3509491504458404 0.7029766250972236 0.0607893488502633	0.103675
H	0.3498873682223327 0.5764353396341805 0.0589233891737054	0.105214
Ni	0.2500000000000000 0.2500000000000000 0.6011787237192150	0.474906
Ni	0.7500000000000000 0.7500000000000000 0.8988212762807850	0.474922
Ni	0.7500000000000000 0.7500000000000000 0.3988212142807868	0.474919
Ni	0.2500000000000000 0.2500000000000000 0.1011787467192134	0.474903
Zr	0.2500000000000000 0.2500000000000000 0.3515615278019019	2.466917
Zr	0.7500000000000000 0.7500000000000000 0.1484384871980957	2.466918
Zr	0.7500000000000000 0.7500000000000000 0.6484385651980950	2.466940
Zr	0.2500000000000000 0.2500000000000000 0.8515614348019050	2.466938
	  	
