#======================================================================

# CRYSTAL DATA

#----------------------------------------------------------------------

data_VESTA_phase_1


_pd_phase_name                         ZrFSIX_16_Ni_i
_cell_length_a                         25.03567
_cell_length_b                         25.03567
_cell_length_c                         8.03066
_cell_angle_alpha                      90
_cell_angle_beta                       90
_cell_angle_gamma                      90
_symmetry_space_group_name_H-M         P 1
_symmetry_Int_Tables_number            1

loop_
_symmetry_equiv_pos_as_xyz
   x, y, z

loop_
   _atom_site_label
   _atom_site_fract_x
   _atom_site_fract_y
   _atom_site_fract_z
   _atom_site_charge
C	0.4781381739147024 0.3884985106285395 0.3726962368175782	0.103540
C	0.4774693115950563 0.3330948306252848 0.3674012865890900	-0.166043
C	0.9550084687674694 0.6134879902962468 0.9433424324341003	-0.125168
C	0.9551663186937442 0.5580174957976117 0.9441034500128260	-0.125222
C	0.5218618640852937 0.6115015273714568 0.3726962368175782	0.103626
C	0.5225306884049435 0.6669052073747117 0.3674012865890900	-0.165979
C	0.0449914552325314 0.3865119707037534 0.9433424324341003	-0.125203
C	0.0448337003062539 0.4419825422023916 0.9441034500128260	-0.125215
C	0.6115015273714568 0.4781381739147024 0.3726962368175782	0.103624
C	0.6669052073747117 0.4774693115950563 0.3674012865890900	-0.165978
C	0.3865119707037534 0.9550084687674694 0.9433424324341003	-0.125168
C	0.4419825422023916 0.9551663186937442 0.9441034500128260	-0.125221
C	0.3884985106285395 0.5218618640852937 0.3726962368175782	0.103542
C	0.3330948306252848 0.5225306884049435 0.3674012865890900	-0.166043
C	0.6134879902962468 0.0449914552325314 0.9433424324341003	-0.125203
C	0.5580174957976117 0.0448337003062539 0.9441034500128260	-0.125215
C	0.5218618640852937 0.3884985106285395 0.6273037631824220	0.103542
C	0.5225306884049435 0.3330948306252848 0.6325986814109074	-0.166043
C	0.0449914552325314 0.6134879902962468 0.0566575795659010	-0.125203
C	0.0448337003062539 0.5580174957976117 0.0558965259871721	-0.125215
C	0.4781381739147024 0.6115015273714568 0.6273037631824220	0.103624
C	0.4774693115950563 0.6669052073747117 0.6325986814109074	-0.165978
C	0.9550084687674694 0.3865119707037534 0.0566575795659010	-0.125168
C	0.9551663186937442 0.4419825422023916 0.0558965259871721	-0.125222
C	0.3884985106285395 0.4781381739147024 0.6273037631824220	0.103539
C	0.3330948306252848 0.4774693115950563 0.6325986814109074	-0.166043
C	0.6134879902962468 0.9550084687674694 0.0566575795659010	-0.125168
C	0.5580174957976117 0.9551663186937442 0.0558965259871721	-0.125222
C	0.6115015273714568 0.5218618640852937 0.6273037631824220	0.103626
C	0.6669052073747117 0.5225306884049435 0.6325986814109074	-0.165979
C	0.3865119707037534 0.0449914552325314 0.0566575795659010	-0.125203
C	0.4419825422023916 0.0448337003062539 0.0558965259871721	-0.125215
C	0.5449914932325346 0.8865119327037575 0.5566575995658952	-0.125207
C	0.5448336813062558 0.9419825422023914 0.5558965179871713	-0.125212
C	0.0218618180852971 0.1115014703714625 0.1273037631824218	0.103540
C	0.0225306864049434 0.1669051693747153 0.1325986974109087	-0.166042
C	0.4550085447674687 0.1134880382962438 0.5566575995658952	-0.125207
C	0.4551662806937479 0.0580174427976108 0.5558965179871713	-0.125212
C	0.9781381359147063 0.8884984726285432 0.1273037631824218	0.103626
C	0.9774693115950565 0.8330948306252843 0.1325986974109087	-0.165979
C	0.1134880382962438 0.5449914932325346 0.5566575995658952	-0.125207
C	0.0580174427976108 0.5448336813062558 0.5558965179871713	-0.125212
C	0.8884984726285432 0.0218618180852971 0.1273037631824218	0.103624
C	0.8330948306252843 0.0225306864049434 0.1325986974109087	-0.165978
C	0.8865119327037575 0.4550085447674687 0.5566575995658952	-0.125207
C	0.9419825422023914 0.4551662806937479 0.5558965179871713	-0.125212
C	0.1115014703714625 0.9781381359147063 0.1273037631824218	0.103542
C	0.1669051693747153 0.9774693115950565 0.1325986974109087	-0.166043
C	0.4550085447674687 0.8865119327037575 0.4433424324341000	-0.125207
C	0.4551662806937479 0.9419825422023914 0.4441034820128286	-0.125212
C	0.9781381359147063 0.1115014703714625 0.8726962688175736	0.103542
C	0.9774693115950565 0.1669051693747153 0.8674012865890900	-0.166043
C	0.5449914932325346 0.1134880382962438 0.4433424324341000	-0.125207
C	0.5448336813062558 0.0580174427976108 0.4441034820128286	-0.125212
C	0.0218618180852971 0.8884984726285432 0.8726962688175736	0.103624
C	0.0225306864049434 0.8330948306252843 0.8674012865890900	-0.165978
C	0.8865119327037575 0.5449914932325346 0.4433424324341000	-0.125207
C	0.9419825422023914 0.5448336813062558 0.4441034820128286	-0.125212
C	0.1115014703714625 0.0218618180852971 0.8726962688175736	0.103539
C	0.1669051693747153 0.0225306864049434 0.8674012865890900	-0.166043
C	0.1134880382962438 0.4550085447674687 0.4433424324341000	-0.125207
C	0.0580174427976108 0.4551662806937479 0.4441034820128286	-0.125212
C	0.8884984726285432 0.9781381359147063 0.8726962688175736	0.103626
C	0.8330948306252843 0.9774693115950565 0.8674012865890900	-0.165979
C	0.5000000000000000 0.3040413726258923 0.5000000000000000	0.174692
C	0.5000000000000000 0.2474471111413896 0.5000000000000000	-0.115878
C	0.5000000000000000 0.1987492248147836 0.5000000000000000	-0.092896
C	0.5000000000000000 0.1421298207100440 0.5000000000000000	0.124790
C	0.5000000000000000 0.0293934608745249 0.5000000000000000	0.067138
C	-0.0000000000000000 0.8040413536258874 0.0000000000000000	0.174668
C	-0.0000000000000000 0.7474470911413876 0.0000000000000000	-0.115882
C	-0.0000000000000000 0.6987491868147877 0.0000000000000000	-0.092885
C	-0.0000000000000000 0.6421297827100410 0.0000000000000000	0.124741
C	-0.0000000000000000 0.5293934748745264 0.0000000000000000	0.067137
C	0.5000000000000000 0.6959586083741095 0.5000000000000000	0.174668
C	0.5000000000000000 0.7525529468586084 0.5000000000000000	-0.115878
C	0.5000000000000000 0.8012507751852163 0.5000000000000000	-0.092896
C	0.5000000000000000 0.8578701792899559 0.5000000000000000	0.124790
C	0.5000000000000000 0.9706065251254736 0.5000000000000000	0.067139
C	-0.0000000000000000 0.1959586273741077 0.0000000000000000	0.174693
C	-0.0000000000000000 0.2525528888586103 0.0000000000000000	-0.115882
C	-0.0000000000000000 0.3012507551852147 0.0000000000000000	-0.092885
C	-0.0000000000000000 0.3578701792899560 0.0000000000000000	0.124741
C	-0.0000000000000000 0.4706065631254772 0.0000000000000000	0.067137
C	0.6959586083741095 0.5000000000000000 0.5000000000000000	0.174668
C	0.7525529468586084 0.5000000000000000 0.5000000000000000	-0.115878
C	0.8012507751852163 0.5000000000000000 0.5000000000000000	-0.092896
C	0.8578701792899559 0.5000000000000000 0.5000000000000000	0.124790
C	0.9706065251254736 0.5000000000000000 0.5000000000000000	0.067138
C	0.1959586273741077 0.0000000000000000 0.0000000000000000	0.174693
C	0.2525528888586103 0.0000000000000000 0.0000000000000000	-0.115882
C	0.3012507551852147 0.0000000000000000 0.0000000000000000	-0.092885
C	0.3578701792899560 0.0000000000000000 0.0000000000000000	0.124741
C	0.4706065631254772 0.0000000000000000 0.0000000000000000	0.067136
C	0.3040413726258923 0.5000000000000000 0.5000000000000000	0.174692
C	0.2474471111413896 0.5000000000000000 0.5000000000000000	-0.115878
C	0.1987492248147836 0.5000000000000000 0.5000000000000000	-0.092896
C	0.1421298207100440 0.5000000000000000 0.5000000000000000	0.124790
C	0.0293934608745249 0.5000000000000000 0.5000000000000000	0.067139
C	0.8040413536258874 0.0000000000000000 0.0000000000000000	0.174668
C	0.7474470911413876 0.0000000000000000 0.0000000000000000	-0.115882
C	0.6987491868147877 0.0000000000000000 0.0000000000000000	-0.092885
C	0.6421297827100410 0.0000000000000000 0.0000000000000000	0.124741
C	0.5293934748745264 0.0000000000000000 0.0000000000000000	0.067137
H	0.4609542704928993 0.4117677047651149 0.2711019353348891	0.093839
H	0.4598059429154033 0.3124891323829105 0.2614997314405251	0.127979
H	0.9203122091158257 0.6353330527782265 0.8978019663233685	0.112037
H	0.9205963956617632 0.5362716071981213 0.8967171698568969	0.105970
H	0.5390457295071002 0.5882322952348851 0.2711019353348891	0.093805
H	0.5401940950846003 0.6875109436170885 0.2614997314405251	0.127969
H	0.0796877718841762 0.3646669472217738 0.8978019663233685	0.112029
H	0.0794036333382356 0.4637284318018786 0.8967171698568969	0.105968
H	0.5882322952348851 0.4609542704928993 0.2711019353348891	0.093804
H	0.6875109436170885 0.4598059429154033 0.2614997314405251	0.127969
H	0.3646669472217738 0.9203122091158257 0.8978019663233685	0.112037
H	0.4637284318018786 0.9205963956617632 0.8967171698568969	0.105969
H	0.4117677047651149 0.5390457295071002 0.2711019353348891	0.093840
H	0.3124891323829105 0.5401940950846003 0.2614997314405251	0.127979
H	0.6353330527782265 0.0796877718841762 0.8978019663233685	0.112029
H	0.5362716071981213 0.0794036333382356 0.8967171698568969	0.105968
H	0.5390457295071002 0.4117677047651149 0.7288980486651097	0.093840
H	0.5401940950846003 0.3124891323829105 0.7385002685594748	0.127979
H	0.0796877718841762 0.6353330527782265 0.1021980096766293	0.112029
H	0.0794036333382356 0.5362716071981213 0.1032828301431032	0.105968
H	0.4609542704928993 0.5882322952348851 0.7288980486651097	0.093804
H	0.4598059429154033 0.6875109436170885 0.7385002685594748	0.127968
H	0.9203122091158257 0.3646669472217738 0.1021980096766293	0.112036
H	0.9205963956617632 0.4637284318018786 0.1032828301431032	0.105970
H	0.4117677047651149 0.4609542704928993 0.7288980486651097	0.093839
H	0.3124891323829105 0.4598059429154033 0.7385002685594748	0.127979
H	0.6353330527782265 0.9203122091158257 0.1021980096766293	0.112036
H	0.5362716071981213 0.9205963956617632 0.1032828301431032	0.105970
H	0.5882322952348851 0.5390457295071002 0.7288980486651097	0.093805
H	0.6875109436170885 0.5401940950846003 0.7385002685594748	0.127968
H	0.3646669472217738 0.0796877718841762 0.1021980096766293	0.112029
H	0.4637284318018786 0.0794036333382356 0.1032828301431032	0.105968
H	0.5796877908841743 0.8646669472217735 0.6021980016766288	0.112027
H	0.5794036043382368 0.9637284318018784 0.6032828621431058	0.105967
H	0.0390457395071014 0.0882322662348864 0.2288980646651109	0.093839
H	0.0401941000845969 0.1875108866170874 0.2385003005594704	0.127979
H	0.4203122471158290 0.1353330817782250 0.6021980016766288	0.112027
H	0.4205963566617634 0.0362715921981165 0.6032828621431058	0.105966
H	0.9609542704928998 0.9117677817651106 0.2288980646651109	0.093805
H	0.9598059049153997 0.8124891703829138 0.2385003005594704	0.127968
H	0.1353330817782250 0.5796877908841743 0.6021980016766288	0.112027
H	0.0362715921981165 0.5794036043382368 0.6032828621431058	0.105966
H	0.9117677817651106 0.0390457395071014 0.2288980646651109	0.093804
H	0.8124891703829138 0.0401941000845969 0.2385003005594704	0.127968
H	0.8646669472217735 0.4203122471158290 0.6021980016766288	0.112027
H	0.9637284318018784 0.4205963566617634 0.6032828621431058	0.105967
H	0.0882322662348864 0.9609542704928998 0.2288980646651109	0.093840
H	0.1875108866170874 0.9598059049153997 0.2385003005594704	0.127979
H	0.4203122471158290 0.8646669472217735 0.3978019663233688	0.112027
H	0.4205963566617634 0.9637284318018784 0.3967172018568924	0.105967
H	0.9609542704928998 0.0882322662348864 0.7711019193348877	0.093840
H	0.9598059049153997 0.1875108866170874 0.7614996994405225	0.127978
H	0.5796877908841743 0.1353330817782250 0.3978019663233688	0.112027
H	0.5794036043382368 0.0362715921981165 0.3967172018568924	0.105967
H	0.0390457395071014 0.9117677817651106 0.7711019193348877	0.093804
H	0.0401941000845969 0.8124891703829138 0.7614996994405225	0.127968
H	0.8646669472217735 0.5796877908841743 0.3978019663233688	0.112027
H	0.9637284318018784 0.5794036043382368 0.3967172018568924	0.105967
H	0.0882322662348864 0.0390457395071014 0.7711019193348877	0.093839
H	0.1875108866170874 0.0401941000845969 0.7614996994405225	0.127978
H	0.1353330817782250 0.4203122471158290 0.3978019663233688	0.112027
H	0.0362715921981165 0.4205963566617634 0.3967172018568924	0.105967
H	0.9117677817651106 0.9609542704928998 0.7711019193348877	0.093805
H	0.8124891703829138 0.9598059049153997 0.7614996994405225	0.127968
Ni	0.5000000000000000 0.5000000000000000 0.5000000000000000	0.779210
Ni	-0.0000000000000000 0.0000000000000000 0.0000000000000000	0.779210
Zr	0.5000000000000000 0.5000000000000000 0.0000000000000000	2.474523
Zr	-0.0000000000000000 0.0000000000000000 0.5000000000000000	2.474523
F	0.5000000000000000 0.5000000000000000 0.2556946790776589	-0.613271
F	-0.0000000000000000 0.0000000000000000 0.7556946470776637	-0.613271
F	0.5000000000000000 0.5000000000000000 0.7443052569223426	-0.613271
F	-0.0000000000000000 0.0000000000000000 0.2443053209223409	-0.613271
F	0.5575779888539373 0.5575779888539373 0.0000000000000000	-0.674406
F	0.0575779418539372 0.0575779418539372 0.5000000000000000	-0.674408
F	0.4424220871460688 0.4424220871460688 0.0000000000000000	-0.674408
F	0.9424220491460659 0.9424220491460659 0.5000000000000000	-0.674406
F	0.4424220871460688 0.5575779888539373 0.0000000000000000	-0.674407
F	0.9424220491460659 0.0575779418539372 0.5000000000000000	-0.674407
F	0.5575779888539373 0.4424220871460688 0.0000000000000000	-0.674407
F	0.0575779418539372 0.9424220491460659 0.5000000000000000	-0.674407
N	0.5000000000000000 0.4159991294301670 0.5000000000000000	-0.244008
N	-0.0000000000000000 0.9159991674301698 0.0000000000000000	-0.244214
N	0.5000000000000000 0.5840008705698333 0.5000000000000000	-0.244214
N	-0.0000000000000000 0.0840008795698302 0.0000000000000000	-0.244008
N	0.5840008705698333 0.5000000000000000 0.5000000000000000	-0.244214
N	0.0840008795698302 0.0000000000000000 0.0000000000000000	-0.244008
N	0.4159991294301670 0.5000000000000000 0.5000000000000000	-0.244008
N	0.9159991674301698 0.0000000000000000 0.0000000000000000	-0.244214
	  	
