#======================================================================

# CRYSTAL DATA

#----------------------------------------------------------------------

data_VESTA_phase_1


_pd_phase_name                         ZrFSIX_2_Cd_i
_cell_length_a                         14.33809
_cell_length_b                         14.33809
_cell_length_c                         8.59325
_cell_angle_alpha                      90
_cell_angle_beta                       90
_cell_angle_gamma                      90
_symmetry_space_group_name_H-M         P 1
_symmetry_Int_Tables_number            1

loop_
_symmetry_equiv_pos_as_xyz
   x, y, z

loop_
   _atom_site_label
   _atom_site_fract_x
   _atom_site_fract_y
   _atom_site_fract_z
   _atom_site_charge
C	0.0000000000000000 0.3085919721096049 0.3592273331195571	-0.155679
C	0.0000000000000000 0.2118021765042492 0.3646778465189414	0.107384
C	0.5000000000000000 0.8085919721096049 0.8592273621195557	-0.155679
C	0.5000000000000000 0.7118021945042508 0.8646778465189415	0.107384
C	0.0000000000000000 0.6914080278903951 0.3592273331195571	-0.155681
C	0.0000000000000000 0.7881978054957492 0.3646778465189414	0.107387
C	0.5000000000000000 0.1914080448903930 0.8592273621195557	-0.155681
C	0.5000000000000000 0.2881978054957493 0.8646778465189415	0.107386
C	0.6914080278903951 -0.0000000000000000 0.3592273331195571	-0.155679
C	0.7881978054957492 -0.0000000000000000 0.3646778465189414	0.107386
C	0.1914080448903929 0.5000000000000000 0.8592273621195557	-0.155679
C	0.2881978054957493 0.5000000000000000 0.8646778465189415	0.107386
C	0.3085919721096049 -0.0000000000000000 0.3592273331195571	-0.155681
C	0.2118021765042492 -0.0000000000000000 0.3646778465189414	0.107388
C	0.8085919721096049 0.5000000000000000 0.8592273621195557	-0.155681
C	0.7118021945042508 0.5000000000000000 0.8646778465189415	0.107388
C	0.0000000000000000 0.3085919721096049 0.6407726378804443	-0.155677
C	0.0000000000000000 0.2118021765042492 0.6353221534810585	0.107385
C	0.5000000000000000 0.8085919721096049 0.1407726668804429	-0.155677
C	0.5000000000000000 0.7118021945042508 0.1353221384810609	0.107385
C	0.0000000000000000 0.6914080278903951 0.6407726378804443	-0.155679
C	0.0000000000000000 0.7881978054957492 0.6353221534810585	0.107387
C	0.5000000000000000 0.1914080448903929 0.1407726668804429	-0.155679
C	0.5000000000000000 0.2881978054957493 0.1353221384810609	0.107387
C	0.3085919721096049 -0.0000000000000000 0.6407726378804443	-0.155679
C	0.2118021765042492 -0.0000000000000000 0.6353221534810585	0.107389
C	0.8085919721096049 0.5000000000000000 0.1407726668804429	-0.155679
C	0.7118021945042508 0.5000000000000000 0.1353221384810609	0.107389
C	0.6914080278903951 -0.0000000000000000 0.6407726378804443	-0.155677
C	0.7881978054957492 -0.0000000000000000 0.6353221534810585	0.107386
C	0.1914080448903929 0.5000000000000000 0.1407726668804429	-0.155677
C	0.2881978054957493 0.5000000000000000 0.1353221384810609	0.107386
C	0.0000000000000000 0.4574767095349946 0.5000000000000000	-0.093957
C	0.0000000000000000 0.3589301968876270 0.5000000000000000	0.164435
C	0.5000000000000000 0.9574767435349972 0.0000000000000000	-0.093957
C	0.5000000000000000 0.8589301618876277 0.0000000000000000	0.164435
C	0.0000000000000000 0.5425232904650056 0.5000000000000000	-0.093711
C	0.0000000000000000 0.6410698381123723 0.5000000000000000	0.164405
C	0.5000000000000000 0.0425232694650000 0.0000000000000000	-0.093712
C	0.5000000000000000 0.1410698381123724 0.0000000000000000	0.164405
C	0.5425232904650056 -0.0000000000000000 0.5000000000000000	-0.093957
C	0.6410698381123723 -0.0000000000000000 0.5000000000000000	0.164435
C	0.0425232694650000 0.5000000000000000 0.0000000000000000	-0.093957
C	0.1410698381123724 0.5000000000000000 0.0000000000000000	0.164435
C	0.4574767095349946 -0.0000000000000000 0.5000000000000000	-0.093711
C	0.3589301968876270 -0.0000000000000000 0.5000000000000000	0.164405
C	0.9574767435349972 0.5000000000000000 0.0000000000000000	-0.093711
C	0.8589301618876277 0.5000000000000000 0.0000000000000000	0.164405
H	0.0000000000000000 0.3445714478407654 0.2476247645870261	0.123136
H	0.0000000000000000 0.1707788629457893 0.2577435643324538	0.093816
H	0.5000000000000000 0.8445714478407652 0.7476247645870261	0.123136
H	0.5000000000000000 0.6707788099457882 0.7577435943324560	0.093816
H	0.0000000000000000 0.6554285521592348 0.2476247645870262	0.123135
H	0.0000000000000000 0.8292211900542118 0.2577435643324538	0.093816
H	0.5000000000000000 0.1554285521592346 0.7476247645870261	0.123135
H	0.5000000000000000 0.3292211550542051 0.7577435943324560	0.093817
H	0.6554285521592348 -0.0000000000000000 0.2476247645870262	0.123136
H	0.8292211900542118 -0.0000000000000000 0.2577435643324538	0.093816
H	0.1554285521592346 0.5000000000000000 0.7476247645870261	0.123136
H	0.3292211550542051 0.5000000000000000 0.7577435943324560	0.093816
H	0.3445714478407654 -0.0000000000000000 0.2476247645870261	0.123135
H	0.1707788629457893 -0.0000000000000000 0.2577435643324538	0.093816
H	0.8445714478407652 0.5000000000000000 0.7476247645870261	0.123135
H	0.6707788099457882 0.5000000000000000 0.7577435943324560	0.093816
H	0.0000000000000000 0.3445714478407654 0.7523752354129739	0.123133
H	0.0000000000000000 0.1707788629457893 0.7422563476675463	0.093816
H	0.5000000000000000 0.8445714478407652 0.2523752354129737	0.123133
H	0.5000000000000000 0.6707788099457882 0.2422564356675462	0.093816
H	0.0000000000000000 0.6554285521592348 0.7523752354129739	0.123132
H	0.0000000000000000 0.8292211900542118 0.7422563476675463	0.093816
H	0.5000000000000000 0.1554285521592346 0.2523752354129737	0.123132
H	0.5000000000000000 0.3292211550542051 0.2422564356675462	0.093816
H	0.3445714478407654 -0.0000000000000000 0.7523752354129739	0.123132
H	0.1707788629457893 -0.0000000000000000 0.7422563476675463	0.093816
H	0.8445714478407652 0.5000000000000000 0.2523752354129737	0.123132
H	0.6707788099457882 0.5000000000000000 0.2422564356675462	0.093816
H	0.6554285521592348 -0.0000000000000000 0.7523752354129739	0.123134
H	0.8292211900542118 -0.0000000000000000 0.7422563476675463	0.093816
H	0.1554285521592346 0.5000000000000000 0.2523752354129737	0.123134
H	0.3292211550542051 0.5000000000000000 0.2422564356675462	0.093816
Cd	0.0000000000000000 -0.0000000000000000 0.5000000000000000	0.841289
Cd	0.5000000000000000 0.5000000000000000 0.0000000000000000	0.841289
Zr	0.0000000000000000 -0.0000000000000000 0.0000000000000000	2.472876
Zr	0.5000000000000000 0.5000000000000000 0.5000000000000000	2.472876
N	0.0000000000000000 0.1642311901015976 0.5000000000000000	-0.238825
N	0.5000000000000000 0.6642311721015960 0.0000000000000000	-0.238825
N	0.0000000000000000 0.8357688278984040 0.5000000000000000	-0.238825
N	0.5000000000000000 0.3357688278984040 0.0000000000000000	-0.238825
N	0.8357688278984040 -0.0000000000000000 0.5000000000000000	-0.238825
N	0.3357688278984040 0.5000000000000000 0.0000000000000000	-0.238825
N	0.1642311901015976 -0.0000000000000000 0.5000000000000000	-0.238825
N	0.6642311721015960 0.5000000000000000 0.0000000000000000	-0.238825
F	0.0000000000000000 -0.0000000000000000 0.7593646546400747	-0.620444
F	0.5000000000000000 0.5000000000000000 0.2593647436400786	-0.620444
F	0.0000000000000000 -0.0000000000000000 0.2406352713599262	-0.620444
F	0.5000000000000000 0.5000000000000000 0.7406353453599253	-0.620444
F	0.6004573369883803 0.6004573369883803 0.5000000000000000	-0.687395
F	0.6004573369883803 0.3995426630116199 0.5000000000000000	-0.687395
F	0.3995426630116199 0.6004573369883803 0.5000000000000000	-0.687395
F	0.3995426630116199 0.3995426630116199 0.5000000000000000	-0.687395
F	0.1004573539883781 0.1004573539883781 0.0000000000000000	-0.687395
F	0.8995426630116197 0.8995426630116197 0.0000000000000000	-0.687395
F	0.8995426630116197 0.1004573539883781 0.0000000000000000	-0.687395
F	0.1004573539883781 0.8995426630116197 0.0000000000000000	-0.687395
	  	
