#======================================================================

# CRYSTAL DATA

#----------------------------------------------------------------------

data_VESTA_phase_1


_pd_phase_name                         ZrFSIX_1_Fe
_cell_length_a                         11.47907
_cell_length_b                         11.47907
_cell_length_c                         8.22935
_cell_angle_alpha                      90
_cell_angle_beta                       90
_cell_angle_gamma                      90
_symmetry_space_group_name_H-M         P 1
_symmetry_Int_Tables_number            1

loop_
_symmetry_equiv_pos_as_xyz
   x, y, z

loop_
   _atom_site_label
   _atom_site_fract_x
   _atom_site_fract_y
   _atom_site_fract_z
   _atom_site_charge
C	0.2485338208338561 0.4581772747739311 0.3720220193255131	0.102723
C	0.1274267614741150 0.4578775901642133 0.3666773186464115	-0.171193
C	0.7514662661661474 0.5418227682260693 0.3720220193255131	0.102723
C	0.8725732825258886 0.5421224098357872 0.3666773186464115	-0.171193
C	0.5418227682260693 0.2485338208338561 0.3720220193255131	0.102723
C	0.5421224098357872 0.1274267614741150 0.3666773186464115	-0.171193
C	0.4581772747739311 0.7514662661661474 0.3720220193255131	0.102723
C	0.4578775901642133 0.8725732825258886 0.3666773186464115	-0.171193
C	0.7514662661661474 0.4581772747739311 0.6279779506744844	0.102723
C	0.8725732825258886 0.4578775901642133 0.6333226523535829	-0.171192
C	0.2485338208338561 0.5418227682260693 0.6279779506744844	0.102723
C	0.1274267614741150 0.5421224098357872 0.6333226523535829	-0.171192
C	0.4581772747739311 0.2485338208338561 0.6279779506744844	0.102723
C	0.4578775901642133 0.1274267614741150 0.6333226523535829	-0.171193
C	0.5418227682260693 0.7514662661661474 0.6279779506744844	0.102723
C	0.5421224098357872 0.8725732825258886 0.6333226523535829	-0.171193
C	0.0643069894926925 0.5000000000000000 0.5000000000000000	0.101847
C	0.9356930865073068 0.5000000000000000 0.5000000000000000	0.101847
C	0.5000000000000000 0.0643069894926925 0.5000000000000000	0.101847
C	0.5000000000000000 0.9356930865073068 0.5000000000000000	0.101847
H	0.2989628236882002 0.4241330119644207 0.2701253220635275	0.099384
H	0.0831571163494702 0.4228331158997205 0.2602296801200777	0.126638
H	0.7010371333117998 0.5758669880355790 0.2701253220635275	0.099384
H	0.9168428996505310 0.5771668841002796 0.2602296801200777	0.126637
H	0.5758669880355790 0.2989628236882002 0.2701253220635275	0.099383
H	0.5771668841002796 0.0831571163494702 0.2602296801200777	0.126639
H	0.4241330119644207 0.7010371333117998 0.2701253220635275	0.099384
H	0.4228331158997205 0.9168428996505310 0.2602296801200777	0.126638
H	0.7010371333117998 0.4241330119644207 0.7298746489364738	0.099384
H	0.9168428996505310 0.4228331158997205 0.7397703788799237	0.126637
H	0.2989628236882002 0.5758669880355790 0.7298746489364738	0.099384
H	0.0831571163494702 0.5771668841002796 0.7397703788799237	0.126636
H	0.4241330119644207 0.2989628236882002 0.7298746489364738	0.099384
H	0.4228331158997205 0.0831571163494702 0.7397703788799237	0.126638
H	0.5758669880355790 0.7010371333117998 0.7298746489364738	0.099384
H	0.5771668841002796 0.9168428996505310 0.7397703788799237	0.126637
Fe	0.5000000000000000 0.5000000000000000 0.5000000000000000	0.599931
Zr	0.5000000000000000 0.5000000000000000 0.0000000000000000	2.465114
F	0.5000000000000000 0.5000000000000000 0.7460707538504392	-0.620186
F	0.5000000000000000 0.5000000000000000 0.2539292461495611	-0.620186
F	0.3748680911050406 0.3748680911050406 0.0000000000000000	-0.683700
F	0.6251319088949597 0.6251319088949597 0.0000000000000000	-0.683700
F	0.6251319088949597 0.3748680911050406 0.0000000000000000	-0.683700
F	0.3748680911050406 0.6251319088949597 0.0000000000000000	-0.683700
N	0.3085978343754807 0.5000000000000000 0.5000000000000000	-0.189418
N	0.6914021876245212 0.5000000000000000 0.5000000000000000	-0.189418
N	0.5000000000000000 0.3085978343754807 0.5000000000000000	-0.189418
N	0.5000000000000000 0.6914021876245212 0.5000000000000000	-0.189418
	  	
