#======================================================================

# CRYSTAL DATA

#----------------------------------------------------------------------

data_VESTA_phase_1


_pd_phase_name                         ZrFSIX_5_Co_i
_cell_length_a                         19.60384
_cell_length_b                         19.60384
_cell_length_c                         16.77502
_cell_angle_alpha                      90
_cell_angle_beta                       90
_cell_angle_gamma                      90
_symmetry_space_group_name_H-M         P 1
_symmetry_Int_Tables_number            1

loop_
_symmetry_equiv_pos_as_xyz
   x, y, z

loop_
   _atom_site_label
   _atom_site_fract_x
   _atom_site_fract_y
   _atom_site_fract_z
   _atom_site_charge
F	0.3128242842299163 0.1667960474323424 0.3524954093349759	-0.685336
F	0.1871757037700828 0.3332039525676578 0.3524954093349759	-0.685341
F	0.3332039525676578 0.3128242842299163 0.3524954093349759	-0.685339
F	0.1667960474323424 0.1871757037700828 0.3524954093349759	-0.685338
F	0.6871757397700791 0.6667960714323445 0.1475045906650168	-0.685338
F	0.8128242602299209 0.8332039285676555 0.1475045906650168	-0.685339
F	0.6667960714323445 0.8128242602299209 0.1475045906650168	-0.685339
F	0.8332039285676555 0.6871757397700791 0.1475045906650168	-0.685338
F	0.6871757397700791 0.8332039285676555 0.6475046226650266	-0.685341
F	0.8128242602299209 0.6667960714323445 0.6475046226650266	-0.685336
F	0.6667960714323445 0.6871757397700791 0.6475046226650266	-0.685338
F	0.8332039285676555 0.8128242602299209 0.6475046226650266	-0.685339
F	0.3128242842299163 0.3332039525676578 0.8524953773349734	-0.685340
F	0.1871757037700828 0.1667960474323424 0.8524953773349734	-0.685338
F	0.3332039525676578 0.1871757037700828 0.8524953773349734	-0.685338
F	0.1667960474323424 0.3128242842299163 0.8524953773349734	-0.685339
F	0.2500000000000000 0.2500000000000000 0.4741890294554010	-0.618043
F	0.2500000000000000 0.2500000000000000 0.2300229558117798	-0.619521
F	0.7500000000000000 0.7500000000000000 0.0258109975445977	-0.618041
F	0.7500000000000000 0.7500000000000000 0.2699770281882183	-0.619521
F	0.7500000000000000 0.7500000000000000 0.5258110015445980	-0.618040
F	0.7500000000000000 0.7500000000000000 0.7699770281882193	-0.619522
F	0.2500000000000000 0.2500000000000000 0.9741889984554020	-0.618042
F	0.2500000000000000 0.2500000000000000 0.7300229718117807	-0.619523
N	0.3499945631264416 0.2471502176419385 0.6021667022370525	-0.193599
N	0.1500054368735590 0.2528497823580615 0.6021667022370525	-0.193639
N	0.2528497823580615 0.3499945631264416 0.6021667022370525	-0.193599
N	0.2471502176419385 0.1500054368735590 0.6021667022370525	-0.193639
N	0.6500054608735610 0.7471501936419366 0.8978332977629475	-0.193596
N	0.8499945391264390 0.7528498063580634 0.8978332977629475	-0.193597
N	0.7471501936419366 0.8499945391264390 0.8978332977629475	-0.193598
N	0.7528498063580634 0.6500054608735610 0.8978332977629475	-0.193596
N	0.6500054608735610 0.7528498063580634 0.3978333287629469	-0.193595
N	0.8499945391264390 0.7471501936419366 0.3978333287629469	-0.193595
N	0.7471501936419366 0.6500054608735610 0.3978333287629469	-0.193594
N	0.7528498063580634 0.8499945391264390 0.3978333287629469	-0.193596
N	0.3499945631264416 0.2528497823580615 0.1021667022370523	-0.193596
N	0.1500054368735590 0.2471502176419385 0.1021667022370523	-0.193638
N	0.2528497823580615 0.1500054368735590 0.1021667022370523	-0.193636
N	0.2471502176419385 0.3499945631264416 0.1021667022370523	-0.193598
C	0.3840652285279936 0.2173467164231475 0.6628826954120129	0.093210
C	0.4547477583945282 0.2165330043527175 0.6664729882666617	-0.171820
C	0.4932427614887004 0.2474751436991469 0.6058819347879565	0.103742
C	0.4569003553987672 0.2776330545712040 0.5429624371448362	-0.173859
C	0.3861754748445147 0.2764912603048570 0.5428158219923884	0.093787
C	0.5683498148364748 0.2483684766244288 0.6080237567017792	0.054374
C	0.6051598625414598 0.1919726525660787 0.6368450758042628	-0.127123
C	0.6760767623576702 0.1923898198087430 0.6375303915526213	-0.125064
C	0.7124612831775579 0.2498316716560246 0.6108754954355936	0.067537
C	0.6757463206932784 0.3066555328768882 0.5831309817275050	-0.121662
C	0.6048594200977596 0.3055934642003924 0.5810576422189101	-0.126135
C	0.1159347474720115 0.2826533075768545 0.6628826954120129	0.093221
C	0.0452521816054741 0.2834670196472844 0.6664729882666617	-0.171822
C	0.0067572175113014 0.2525248563008528 0.6058819347879565	0.103718
C	0.0430996716012313 0.2223669454287961 0.5429624371448362	-0.173746
C	0.1138244891554821 0.2235087636951452 0.5428158219923884	0.093753
C	0.9316501371635283 0.2516314993755690 0.6080237567017792	0.054373
C	0.8948401854585371 0.3080273824339208 0.6368450758042628	-0.127181
C	0.8239232376423298 0.3076101921912507 0.6375303915526213	-0.125046
C	0.7875387168224421 0.2501683043439731 0.6108754954355936	0.067534
C	0.8242537263067220 0.1933444671231115 0.5831309817275050	-0.121665
C	0.8951406759022412 0.1944065707996068 0.5810576422189101	-0.126090
C	0.2826533075768545 0.3840652285279936 0.6628826954120129	0.093212
C	0.2834670196472844 0.4547477583945282 0.6664729882666617	-0.171824
C	0.2525248563008528 0.4932427614887004 0.6058819347879565	0.103744
C	0.2223669454287961 0.4569003553987672 0.5429624371448362	-0.173856
C	0.2235087636951452 0.3861754748445147 0.5428158219923884	0.093788
C	0.2516314993755690 0.5683498148364748 0.6080237567017792	0.054371
C	0.3080273824339208 0.6051598625414598 0.6368450758042628	-0.127184
C	0.3076101921912507 0.6760767623576702 0.6375303915526213	-0.125048
C	0.2501683043439731 0.7124612831775579 0.6108754954355936	0.067534
C	0.1933444671231115 0.6757463206932783 0.5831309817275050	-0.121669
C	0.1944065707996068 0.6048594200977596 0.5810576422189101	-0.126091
C	0.2173467164231475 0.1159347474720115 0.6628826954120129	0.093220
C	0.2165330043527175 0.0452521816054741 0.6664729882666617	-0.171818
C	0.2474751436991469 0.0067572175113014 0.6058819347879565	0.103715
C	0.2776330545712040 0.0430996716012313 0.5429624371448362	-0.173749
C	0.2764912603048570 0.1138244891554821 0.5428158219923884	0.093752
C	0.2483684766244288 0.9316501371635283 0.6080237567017792	0.054376
C	0.1919726525660787 0.8948401854585371 0.6368450758042628	-0.127120
C	0.1923898198087430 0.8239232376423298 0.6375303915526213	-0.125062
C	0.2498316716560246 0.7875387168224421 0.6108754954355936	0.067537
C	0.3066555328768882 0.8242537263067220 0.5831309817275050	-0.121658
C	0.3055934642003924 0.8951406759022412 0.5810576422189101	-0.126135
C	0.6159347474720113 0.7173467644231449 0.8371173045879871	0.093208
C	0.5452521936054749 0.7165330283527120 0.8335270117333383	-0.171820
C	0.5067572385112993 0.7474751916991443 0.8941180652120435	0.103743
C	0.5430997406012337 0.7776330065712002 0.9570375628551638	-0.173857
C	0.6138245491554795 0.7764912843048514 0.9571841780076116	0.093785
C	0.4316501851635245 0.7483685486244280 0.8919762432982208	0.054372
C	0.3948401374585399 0.6919726175660792 0.8631549241957372	-0.127181
C	0.3239231656423239 0.6923897838087477 0.8624696084473787	-0.125047
C	0.2875387648224463 0.7498316956560264 0.8891245045644064	0.067534
C	0.3242536313067179 0.8066555328768885 0.9168690182724950	-0.121668
C	0.3951406039022352 0.8055933932003896 0.9189423577810899	-0.126087
C	0.8840652525279887 0.7826532355768551 0.8371173045879871	0.093212
C	0.9547478063945251 0.7834669716472880 0.8335270117333383	-0.171825
C	0.9932428094886976 0.7525248083008557 0.8941180652120435	0.103745
C	0.9569003073987703 0.7223669934287998 0.9570375628551638	-0.173854
C	0.8861754508445205 0.7235087156951486 0.9571841780076116	0.093786
C	0.0683498508364711 0.7516314513755720 0.8919762432982208	0.054371
C	0.1051598505414592 0.8080273824339208 0.8631549241957372	-0.127182
C	0.1760768103576740 0.8076101681912554 0.8624696084473787	-0.125048
C	0.2124612351775537 0.7501683043439736 0.8891245045644064	0.067536
C	0.1757463446932801 0.6933444671231115 0.9168690182724950	-0.121668
C	0.1048593960977647 0.6944065597996101 0.9189423577810899	-0.126091
C	0.7173467644231449 0.8840652525279887 0.8371173045879871	0.093213
C	0.7165330283527120 0.9547478063945251 0.8335270117333383	-0.171822
C	0.7474751916991443 0.9932428094886976 0.8941180652120435	0.103744
C	0.7776330065712002 0.9569003073987703 0.9570375628551638	-0.173857
C	0.7764912843048514 0.8861754508445205 0.9571841780076116	0.093787
C	0.7483685486244280 0.0683498508364711 0.8919762432982208	0.054371
C	0.6919726175660792 0.1051598505414592 0.8631549241957372	-0.127184
C	0.6923897838087477 0.1760768103576740 0.8624696084473787	-0.125046
C	0.7498316956560264 0.2124612351775537 0.8891245045644064	0.067535
C	0.8066555328768885 0.1757463446932801 0.9168690182724950	-0.121668
C	0.8055933932003896 0.1048593960977647 0.9189423577810899	-0.126090
C	0.7826532355768551 0.6159347474720113 0.8371173045879871	0.093208
C	0.7834669716472880 0.5452521936054749 0.8335270117333383	-0.171823
C	0.7525248083008557 0.5067572385112993 0.8941180652120435	0.103744
C	0.7223669934287998 0.5430997406012337 0.9570375628551638	-0.173853
C	0.7235087156951486 0.6138245491554795 0.9571841780076116	0.093785
C	0.7516314513755720 0.4316501851635245 0.8919762432982208	0.054372
C	0.8080273824339208 0.3948401374585399 0.8631549241957372	-0.127180
C	0.8076101681912554 0.3239231656423239 0.8624696084473787	-0.125048
C	0.7501683043439736 0.2875387648224463 0.8891245045644064	0.067535
C	0.6933444671231115 0.3242536313067179 0.9168690182724950	-0.121669
C	0.6944065597996101 0.3951406039022352 0.9189423577810899	-0.126088
C	0.6159347474720113 0.7826532355768551 0.3371173355879860	0.093211
C	0.5452521936054749 0.7834669716472880 0.3335270117333382	-0.171823
C	0.5067572385112993 0.7525248083008557 0.3941180652120431	0.103742
C	0.5430997406012337 0.7223669934287998 0.4570375938551701	-0.173853
C	0.6138245491554795 0.7235087156951486 0.4571841780076116	0.093784
C	0.4316501851635245 0.7516314513755720 0.3919762432982205	0.054372
C	0.3948401374585399 0.8080273824339208 0.3631548931957386	-0.127180
C	0.3239231656423239 0.8076101681912554 0.3624696394473778	-0.125043
C	0.2875387648224463 0.7501683043439736 0.3891244105644059	0.067533
C	0.3242536313067179 0.6933444671231115 0.4168690492724935	-0.121672
C	0.3951406039022352 0.6944065597996101 0.4189423577810900	-0.126098
C	0.8840652525279887 0.7173467644231449 0.3371173355879860	0.093211
C	0.9547478063945251 0.7165330283527120 0.3335270117333382	-0.171820
C	0.9932428094886976 0.7474751916991443 0.3941180652120431	0.103745
C	0.9569003073987703 0.7776330065712002 0.4570375938551701	-0.173858
C	0.8861754508445205 0.7764912843048514 0.4571841780076116	0.093787
C	0.0683498508364711 0.7483685486244280 0.3919762432982205	0.054372
C	0.1051598505414592 0.6919726175660792 0.3631548931957386	-0.127182
C	0.1760768103576740 0.6923897838087477 0.3624696394473778	-0.125044
C	0.2124612351775537 0.7498316956560264 0.3891244105644059	0.067534
C	0.1757463446932802 0.8066555328768885 0.4168690492724935	-0.121676
C	0.1048593960977647 0.8055933932003896 0.4189423577810900	-0.126098
C	0.7173467644231449 0.6159347474720113 0.3371173355879860	0.093210
C	0.7165330283527120 0.5452521936054749 0.3335270117333382	-0.171820
C	0.7474751916991443 0.5067572385112993 0.3941180652120431	0.103744
C	0.7776330065712002 0.5430997406012337 0.4570375938551701	-0.173855
C	0.7764912843048514 0.6138245491554795 0.4571841780076116	0.093784
C	0.7483685486244280 0.4316501851635245 0.3919762432982205	0.054373
C	0.6919726175660792 0.3948401374585399 0.3631548931957386	-0.127179
C	0.6923897838087477 0.3239231656423239 0.3624696394473778	-0.125043
C	0.7498316956560264 0.2875387648224463 0.3891244105644059	0.067536
C	0.8066555328768885 0.3242536313067179 0.4168690492724935	-0.121673
C	0.8055933932003896 0.3951406039022352 0.4189423577810900	-0.126097
C	0.7826532355768551 0.8840652525279887 0.3371173355879860	0.093212
C	0.7834669716472880 0.9547478063945251 0.3335270117333382	-0.171823
C	0.7525248083008557 0.9932428094886976 0.3941180652120431	0.103744
C	0.7223669934287998 0.9569003073987703 0.4570375938551701	-0.173855
C	0.7235087156951486 0.8861754508445205 0.4571841780076116	0.093788
C	0.7516314513755720 0.0683498508364711 0.3919762432982205	0.054371
C	0.8080273824339208 0.1051598505414592 0.3631548931957386	-0.127183
C	0.8076101681912554 0.1760768103576740 0.3624696394473778	-0.125045
C	0.7501683043439736 0.2124612351775537 0.3891244105644059	0.067532
C	0.6933444671231115 0.1757463446932802 0.4168690492724935	-0.121674
C	0.6944065597996101 0.1048593960977647 0.4189423577810900	-0.126100
C	0.3840652285279936 0.2826533075768545 0.1628826804120155	0.093212
C	0.4547477583945282 0.2834670196472844 0.1664729572666628	-0.171824
C	0.4932427614887004 0.2525248563008528 0.1058819347879567	0.103745
C	0.4569003553987672 0.2223669454287961 0.0429624021448367	-0.173854
C	0.3861754748445147 0.2235087636951452 0.0428158139923879	0.093787
C	0.5683498148364748 0.2516314993755690 0.1080237487017788	0.054371
C	0.6051598625414598 0.3080273824339208 0.1368450758042626	-0.127182
C	0.6760767623576702 0.3076101921912507 0.1375303445526210	-0.125044
C	0.7124612831775579 0.2501683043439731 0.1108755664355958	0.067535
C	0.6757463206932783 0.1933444671231115 0.0831309657275042	-0.121674
C	0.6048594200977596 0.1944065707996068 0.0810576572189077	-0.126100
C	0.1159347474720115 0.2173467164231475 0.1628826804120155	0.093219
C	0.0452521816054741 0.2165330043527175 0.1664729572666628	-0.171815
C	0.0067572175113014 0.2474751436991469 0.1058819347879567	0.103714
C	0.0430996716012313 0.2776330545712040 0.0429624021448367	-0.173751
C	0.1138244891554821 0.2764912603048570 0.0428158139923879	0.093754
C	0.9316501371635283 0.2483684766244288 0.1080237487017788	0.054377
C	0.8948401854585371 0.1919726525660787 0.1368450758042626	-0.127121
C	0.8239232376423298 0.1923898198087430 0.1375303445526210	-0.125060
C	0.7875387168224421 0.2498316716560246 0.1108755664355958	0.067533
C	0.8242537263067220 0.3066555328768882 0.0831309657275042	-0.121665
C	0.8951406759022412 0.3055934642003924 0.0810576572189077	-0.126143
C	0.2826533075768545 0.1159347474720115 0.1628826804120155	0.093219
C	0.2834670196472844 0.0452521816054741 0.1664729572666628	-0.171820
C	0.2525248563008528 0.0067572175113014 0.1058819347879567	0.103719
C	0.2223669454287961 0.0430996716012313 0.0429624021448367	-0.173746
C	0.2235087636951452 0.1138244891554821 0.0428158139923879	0.093754
C	0.2516314993755690 0.9316501371635283 0.1080237487017788	0.054374
C	0.3080273824339208 0.8948401854585371 0.1368450758042626	-0.127180
C	0.3076101921912507 0.8239232376423298 0.1375303445526210	-0.125044
C	0.2501683043439731 0.7875387168224421 0.1108755664355958	0.067535
C	0.1933444671231115 0.8242537263067220 0.0831309657275042	-0.121674
C	0.1944065707996068 0.8951406759022412 0.0810576572189077	-0.126098
C	0.2173467164231475 0.3840652285279936 0.1628826804120155	0.093213
C	0.2165330043527175 0.4547477583945282 0.1664729572666628	-0.171819
C	0.2474751436991469 0.4932427614887004 0.1058819347879567	0.103740
C	0.2776330545712040 0.4569003553987672 0.0429624021448367	-0.173858
C	0.2764912603048570 0.3861754748445147 0.0428158139923879	0.093786
C	0.2483684766244288 0.5683498148364748 0.1080237487017788	0.054374
C	0.1919726525660787 0.6051598625414598 0.1368450758042626	-0.127123
C	0.1923898198087430 0.6760767623576702 0.1375303445526210	-0.125059
C	0.2498316716560246 0.7124612831775579 0.1108755664355958	0.067533
C	0.3066555328768882 0.6757463206932783 0.0831309657275042	-0.121665
C	0.3055934642003924 0.6048594200977596 0.0810576572189077	-0.126145
H	0.3535315581635302 0.1951752025036239 0.7105469605759839	0.101730
H	0.4792656384280023 0.1933561699327441 0.7180852900191795	0.120897
H	0.4834054562028328 0.3010786996662245 0.4928746368649035	0.120143
H	0.3573040076205614 0.2985637288824903 0.4936689075797078	0.101236
H	0.5775507111715438 0.1470292392963080 0.6575118604874738	0.101130
H	0.7039710334740437 0.1481778424316560 0.6598933356977850	0.103781
H	0.7032345334974801 0.3512187935836004 0.5609760613561163	0.103731
H	0.5770691290076856 0.3499862038458293 0.5591755222228389	0.104617
H	0.1464684058364667 0.3048248214963780 0.7105469605759839	0.101728
H	0.0207343675719912 0.3066438540672582 0.7180852900191795	0.120900
H	0.0165945327971698 0.1989213123337763 0.4928746368649035	0.120122
H	0.1426960163794408 0.2014362591175089 0.4936689075797078	0.101230
H	0.9224493358284566 0.3529707607036920 0.6575118604874738	0.101141
H	0.7960289665259563 0.3518221455683429 0.6598933356977850	0.103779
H	0.7967654665025199 0.1487812184164007 0.5609760613561163	0.103736
H	0.9229308709923144 0.1500137841541765 0.5591755222228389	0.104614
H	0.3048248214963780 0.3535315581635302 0.7105469605759839	0.101730
H	0.3066438540672582 0.4792656384280023 0.7180852900191795	0.120900
H	0.1989213123337763 0.4834054562028328 0.4928746368649035	0.120142
H	0.2014362591175089 0.3573040076205614 0.4936689075797078	0.101236
H	0.3529707607036920 0.5775507111715438 0.6575118604874738	0.101140
H	0.3518221455683429 0.7039710334740437 0.6598933356977850	0.103779
H	0.1487812184164007 0.7032345334974801 0.5609760613561163	0.103734
H	0.1500137841541765 0.5770691290076856 0.5591755222228389	0.104615
H	0.1951752025036239 0.1464684058364667 0.7105469605759839	0.101728
H	0.1933561699327441 0.0207343675719912 0.7180852900191795	0.120896
H	0.3010786996662245 0.0165945327971698 0.4928746368649035	0.120123
H	0.2985637288824903 0.1426960163794408 0.4936689075797078	0.101230
H	0.1470292392963080 0.9224493358284566 0.6575118604874738	0.101132
H	0.1481778424316560 0.7960289665259563 0.6598933356977850	0.103781
H	0.3512187935836004 0.7967654665025199 0.5609760613561163	0.103733
H	0.3499862038458293 0.9229308709923144 0.5591755222228389	0.104617
H	0.6464683938364657 0.6951752025036241 0.7894530394240161	0.101729
H	0.5207343135719941 0.6933561459327419 0.7819147099808205	0.120897
H	0.5165945437971668 0.8010786996662247 0.0071253481350919	0.120141
H	0.6426959923794390 0.7985637048824880 0.0063311204202945	0.101235
H	0.4224492888284561 0.6470292392963085 0.8424881395125262	0.101142
H	0.2960289905259578 0.6481778544316570 0.8401066643022150	0.103781
H	0.2967654665025197 0.8512187935836002 0.9390239386438837	0.103734
H	0.4229309189923108 0.8499862278458249 0.9408244777771611	0.104614
H	0.8535316541635312 0.8048248454963799 0.7894530394240161	0.101730
H	0.9792655904280051 0.8066438540672581 0.7819147099808205	0.120899
H	0.9834054082028363 0.6989213003337753 0.0071253481350919	0.120143
H	0.8573039116205602 0.7014362951175120 0.0063311204202945	0.101237
H	0.0775507111715439 0.8529707607036915 0.8424881395125262	0.101140
H	0.2039710094740421 0.8518221455683430 0.8401066643022150	0.103777
H	0.2032345334974804 0.6487812544163967 0.9390239386438837	0.103734
H	0.0770691230076855 0.6500137721541751 0.9408244777771611	0.104613
H	0.6951752025036241 0.8535316541635312 0.7894530394240161	0.101729
H	0.6933561459327419 0.9792655904280051 0.7819147099808205	0.120898
H	0.8010786996662247 0.9834054082028363 0.0071253481350919	0.120144
H	0.7985637048824880 0.8573039116205602 0.0063311204202945	0.101237
H	0.6470292392963085 0.0775507111715439 0.8424881395125262	0.101143
H	0.6481778544316570 0.2039710094740421 0.8401066643022150	0.103778
H	0.8512187935836002 0.2032345334974804 0.9390239386438837	0.103733
H	0.8499862278458249 0.0770691230076855 0.9408244777771611	0.104613
H	0.8048248454963799 0.6464683938364657 0.7894530394240161	0.101729
H	0.8066438540672581 0.5207343135719941 0.7819147099808205	0.120898
H	0.6989213003337753 0.5165945437971668 0.0071253481350919	0.120140
H	0.7014362951175120 0.6426959923794390 0.0063311204202945	0.101235
H	0.8529707607036915 0.4224492888284561 0.8424881395125262	0.101140
H	0.8518221455683431 0.2960289905259578 0.8401066643022150	0.103779
H	0.6487812544163967 0.2967654665025197 0.9390239386438837	0.103735
H	0.6500137721541751 0.4229309189923108 0.9408244777771611	0.104615
H	0.6464683938364657 0.8048248454963799 0.2894530714240122	0.101728
H	0.5207343135719941 0.8066438540672581 0.2819147409808195	0.120898
H	0.5165945437971668 0.6989213003337753 0.5071253321350974	0.120139
H	0.6426959923794390 0.7014362951175120 0.5063310924202918	0.101236
H	0.4224492888284561 0.8529707607036915 0.3424881085125270	0.101140
H	0.2960289905259578 0.8518221455683431 0.3401066323022129	0.103781
H	0.2967654665025197 0.6487812544163967 0.4390239696438822	0.103738
H	0.4229309189923108 0.6500137721541751 0.4408245397771596	0.104623
H	0.8535316541635312 0.6951752025036241 0.2894530714240122	0.101730
H	0.9792655904280051 0.6933561459327419 0.2819147409808195	0.120895
H	0.9834054082028363 0.8010786996662247 0.5071253321350974	0.120142
H	0.8573039116205602 0.7985637048824880 0.5063310924202918	0.101236
H	0.0775507111715439 0.6470292392963085 0.3424881085125270	0.101140
H	0.2039710094740421 0.6481778544316570 0.3401066323022129	0.103780
H	0.2032345334974804 0.8512187935836002 0.4390239696438822	0.103733
H	0.0770691230076855 0.8499862278458249 0.4408245397771596	0.104620
H	0.6951752025036241 0.6464683938364657 0.2894530714240122	0.101728
H	0.6933561459327419 0.5207343135719941 0.2819147409808195	0.120895
H	0.8010786996662247 0.5165945437971668 0.5071253321350974	0.120140
H	0.7985637048824880 0.6426959923794390 0.5063310924202918	0.101236
H	0.6470292392963085 0.4224492888284561 0.3424881085125270	0.101141
H	0.6481778544316569 0.2960289905259578 0.3401066323022129	0.103782
H	0.8512187935836002 0.2967654665025197 0.4390239696438822	0.103736
H	0.8499862278458249 0.4229309189923108 0.4408245397771596	0.104621
H	0.8048248454963799 0.8535316541635312 0.2894530714240122	0.101729
H	0.8066438540672581 0.9792655904280051 0.2819147409808195	0.120898
H	0.6989213003337753 0.9834054082028363 0.5071253321350974	0.120141
H	0.7014362951175120 0.8573039116205602 0.5063310924202918	0.101236
H	0.8529707607036915 0.0775507111715439 0.3424881085125270	0.101140
H	0.8518221455683430 0.2039710094740421 0.3401066323022129	0.103779
H	0.6487812544163967 0.2032345334974804 0.4390239696438822	0.103736
H	0.6500137721541751 0.0770691230076855 0.4408245397771596	0.104624
H	0.3535315581635302 0.3048248214963780 0.2105469605759836	0.101729
H	0.4792656384280023 0.3066438540672582 0.2180853050191842	0.120898
H	0.4834054562028328 0.1989213123337763 0.9928746988649088	0.120141
H	0.3573040076205614 0.2014362591175089 0.9936688765797091	0.101237
H	0.5775507111715438 0.3529707607036920 0.1575118754874716	0.101140
H	0.7039710334740437 0.3518221455683429 0.1598933826977849	0.103779
H	0.7032345334974801 0.1487812184164007 0.0609760223561174	0.103736
H	0.5770691290076856 0.1500137841541765 0.0591754832228387	0.104622
H	0.1464684058364667 0.1951752025036239 0.2105469605759836	0.101728
H	0.0207343675719912 0.1933561699327441 0.2180853050191842	0.120895
H	0.0165945327971698 0.3010786996662245 0.9928746988649088	0.120121
H	0.1426960163794408 0.2985637288824903 0.9936688765797091	0.101228
H	0.9224493358284566 0.1470292392963080 0.1575118754874716	0.101132
H	0.7960289665259563 0.1481778424316560 0.1598933826977849	0.103782
H	0.7967654665025199 0.3512187935836004 0.0609760223561174	0.103735
H	0.9229308709923144 0.3499862038458293 0.0591754832228387	0.104627
H	0.3048248214963780 0.1464684058364667 0.2105469605759836	0.101728
H	0.3066438540672582 0.0207343675719912 0.2180853050191842	0.120896
H	0.1989213123337763 0.0165945327971698 0.9928746988649088	0.120120
H	0.2014362591175089 0.1426960163794408 0.9936688765797091	0.101228
H	0.3529707607036920 0.9224493358284566 0.1575118754874716	0.101140
H	0.3518221455683429 0.7960289665259563 0.1598933826977849	0.103781
H	0.1487812184164007 0.7967654665025199 0.0609760223561174	0.103738
H	0.1500137841541765 0.9229308709923144 0.0591754832228387	0.104623
H	0.1951752025036239 0.3535315581635302 0.2105469605759836	0.101729
H	0.1933561699327441 0.4792656384280023 0.2180853050191842	0.120896
H	0.3010786996662245 0.4834054562028328 0.9928746988649088	0.120142
H	0.2985637288824903 0.3573040076205614 0.9936688765797091	0.101236
H	0.1470292392963080 0.5775507111715438 0.1575118754874716	0.101133
H	0.1481778424316560 0.7039710334740437 0.1598933826977849	0.103781
H	0.3512187935836004 0.7032345334974801 0.0609760223561174	0.103733
H	0.3499862038458293 0.5770691290076856 0.0591754832228387	0.104627
Co	0.2500000000000000 0.2500000000000000 0.6016365716800927	0.591053
Co	0.7500000000000000 0.7500000000000000 0.8983634283199073	0.591043
Co	0.7500000000000000 0.7500000000000000 0.3983633663199102	0.591039
Co	0.2500000000000000 0.2500000000000000 0.1016365946800904	0.591049
Zr	0.2500000000000000 0.2500000000000000 0.3522030633557036	2.465244
Zr	0.7500000000000000 0.7500000000000000 0.1477969516442939	2.465243
Zr	0.7500000000000000 0.7500000000000000 0.6477970296442931	2.465243
Zr	0.2500000000000000 0.2500000000000000 0.8522029703557069	2.465243
	  	
