#======================================================================

# CRYSTAL DATA

#----------------------------------------------------------------------

data_VESTA_phase_1


_pd_phase_name                         ZrFSIX_6_Zn_i
_cell_length_a                         17.82330
_cell_length_b                         17.82330
_cell_length_c                         16.23055
_cell_angle_alpha                      90
_cell_angle_beta                       90
_cell_angle_gamma                      90
_symmetry_space_group_name_H-M         P 1
_symmetry_Int_Tables_number            1

loop_
_symmetry_equiv_pos_as_xyz
   x, y, z

loop_
   _atom_site_label
   _atom_site_fract_x
   _atom_site_fract_y
   _atom_site_fract_z
   _atom_site_charge
N	0.2439495914848575 0.1291969772317360 0.1280574805399160	-0.236767
N	0.2560504085151427 0.3708030367682652 0.1280574805399160	-0.236765
N	0.3708030367682652 0.2439495914848575 0.1280574805399160	-0.236766
N	0.1291969772317360 0.2560504085151427 0.1280574805399160	-0.236766
N	0.7560503815151439 0.6291969902317406 0.3719425044600862	-0.236766
N	0.7439496184848561 0.8708030097682594 0.3719425044600862	-0.236765
N	0.6291969902317406 0.7439496184848561 0.3719425044600862	-0.236766
N	0.8708030097682594 0.7560503815151439 0.3719425044600862	-0.236766
N	0.7560503815151439 0.8708030097682594 0.8719425044600861	-0.236765
N	0.7439496184848561 0.6291969902317406 0.8719425044600861	-0.236767
N	0.6291969902317406 0.7560503815151439 0.8719425044600861	-0.236766
N	0.8708030097682594 0.7439496184848561 0.8719425044600861	-0.236766
N	0.2439495914848575 0.3708030367682652 0.6280574955399139	-0.236766
N	0.2560504085151427 0.1291969772317360 0.6280574955399139	-0.236767
N	0.3708030367682652 0.2560504085151427 0.6280574955399139	-0.236767
N	0.1291969772317360 0.2439495914848575 0.6280574955399139	-0.236767
C	0.2014078529890245 0.0930049867552846 0.1839042584704944	0.102702
C	0.1933703970053518 0.0154753347032753 0.1836447596896065	-0.177791
C	0.2324549266032719 0.9727100613799360 0.1251606658128529	0.112541
C	0.2776430811269429 0.0110252005853898 0.0682775896262005	-0.176476
C	0.2810539959719479 0.0888811058147505 0.0709707198129402	0.104352
C	0.2265375496089762 0.8903218210953093 0.1238828123301563	0.059358
C	0.2906457894538939 0.8465403975018915 0.1208871238510615	-0.172746
C	0.2862637360904952 0.7674552398107441 0.1220184730948239	0.085195
C	0.1486146107120849 0.7784099447509285 0.1245725535037925	-0.124039
C	0.1549017400315699 0.8553097857173281 0.1268499112550227	-0.135356
C	0.2985921070109792 0.4069950262447129 0.1839042584704944	0.102701
C	0.3066295629946448 0.4845246462967268 0.1836447596896065	-0.177790
C	0.2675450733967280 0.5272899386200640 0.1251606658128529	0.112542
C	0.2223569318730544 0.4889747964146065 0.0682775896262005	-0.176476
C	0.2189460180280531 0.4111189011852535 0.0709707198129402	0.104350
C	0.2734624503910238 0.6096781789046907 0.1238828123301563	0.059357
C	0.2093542515461060 0.6534596024981085 0.1208871238510615	-0.172743
C	0.2137362369095062 0.7325447601892559 0.1220184730948239	0.085194
C	0.3513853752879139 0.7215900552490715 0.1245725535037925	-0.124041
C	0.3450982599684302 0.6446902142826719 0.1268499112550227	-0.135355
C	0.4069950262447129 0.2014078529890245 0.1839042584704944	0.102702
C	0.4845246462967268 0.1933703970053518 0.1836447596896065	-0.177791
C	0.5272899386200640 0.2324549266032719 0.1251606658128529	0.112541
C	0.4889747964146065 0.2776430811269429 0.0682775896262005	-0.176475
C	0.4111189011852535 0.2810539959719479 0.0709707198129402	0.104351
C	0.6096781789046907 0.2265375496089762 0.1238828123301563	0.059358
C	0.6534596024981085 0.2906457894538939 0.1208871238510615	-0.172744
C	0.7325447601892559 0.2862637360904952 0.1220184730948239	0.085195
C	0.7215900552490715 0.1486146107120849 0.1245725535037925	-0.124039
C	0.6446902142826719 0.1549017400315699 0.1268499112550227	-0.135355
C	0.0930049867552846 0.2985921070109792 0.1839042584704944	0.102701
C	0.0154753347032753 0.3066295629946448 0.1836447596896065	-0.177790
C	0.9727100613799360 0.2675450733967280 0.1251606658128529	0.112542
C	0.0110252005853898 0.2223569318730544 0.0682775896262005	-0.176477
C	0.0888811058147505 0.2189460180280531 0.0709707198129402	0.104352
C	0.8903218210953093 0.2734624503910238 0.1238828123301563	0.059357
C	0.8465403975018915 0.2093542515461060 0.1208871238510615	-0.172745
C	0.7674552398107441 0.2137362369095062 0.1220184730948239	0.085194
C	0.7784099447509285 0.3513853752879139 0.1245725535037925	-0.124041
C	0.8553097857173281 0.3450982599684302 0.1268499112550227	-0.135356
C	0.7985921600109730 0.5930049737552868 0.3160957575295070	0.102703
C	0.8066296159946459 0.5154752997032689 0.3163552093103945	-0.177788
C	0.7675450733967280 0.4727100613799359 0.3748393021871444	0.112517
C	0.7223568918730585 0.5110252575853910 0.4317224143737997	-0.176476
C	0.7189459780280499 0.5888811528147508 0.4290293201870559	0.104352
C	0.7734625303910232 0.3903218740953098 0.3761171796698432	0.059401
C	0.7093542375461047 0.3465403445018908 0.3791128681489378	-0.172837
C	0.7137362639095048 0.2674551598107442 0.3779815269051760	0.085215
C	0.8513854022879195 0.2784099177509303 0.3754274304962062	-0.124067
C	0.8450982069684293 0.3553097597173263 0.3731501207449799	-0.135277
C	0.7014078399890270 0.9069950262447132 0.3160957575295070	0.102700
C	0.6933703840053541 0.9845246462967266 0.3163552093103945	-0.177789
C	0.7324549266032720 0.0272899446200646 0.3748393021871444	0.112519
C	0.7776431081269415 0.9889747964146064 0.4317224143737997	-0.176475
C	0.7810540219719501 0.9111189541852545 0.4290293201870559	0.104351
C	0.7265374696089768 0.1096781529046889 0.3761171796698432	0.059401
C	0.7906457624538953 0.1534596424981047 0.3791128681489378	-0.172837
C	0.7862637360904952 0.2325448131892571 0.3779815269051760	0.085213
C	0.6486145977120805 0.2215900692490724 0.3754274304962062	-0.124069
C	0.6549017930315707 0.1446902142826716 0.3731501207449799	-0.135275
C	0.5930049737552868 0.7014078399890270 0.3160957575295070	0.102703
C	0.5154752997032689 0.6933703840053541 0.3163552093103945	-0.177789
C	0.4727100613799359 0.7324549266032720 0.3748393021871444	0.112519
C	0.5110252575853910 0.7776431081269415 0.4317224143737997	-0.176474
C	0.5888811528147508 0.7810540219719501 0.4290293201870559	0.104351
C	0.3903218740953098 0.7265374696089768 0.3761171796698432	0.059400
C	0.3465403445018908 0.7906457624538953 0.3791128681489378	-0.172838
C	0.2674551598107442 0.7862637360904952 0.3779815269051760	0.085215
C	0.2784099177509303 0.6486145977120805 0.3754274304962062	-0.124067
C	0.3553097597173263 0.6549017930315708 0.3731501207449799	-0.135277
C	0.9069950262447132 0.7985921600109730 0.3160957575295070	0.102701
C	0.9845246462967266 0.8066296159946459 0.3163552093103945	-0.177787
C	0.0272899446200646 0.7675450733967280 0.3748393021871444	0.112517
C	0.9889747964146064 0.7223568918730585 0.4317224143737997	-0.176476
C	0.9111189541852545 0.7189459780280499 0.4290293201870559	0.104352
C	0.1096781529046889 0.7734625303910232 0.3761171796698432	0.059401
C	0.1534596424981047 0.7093542375461047 0.3791128681489378	-0.172837
C	0.2325448131892571 0.7137362639095048 0.3779815269051760	0.085214
C	0.2215900692490724 0.8513854022879195 0.3754274304962062	-0.124069
C	0.1446902142826716 0.8450982069684293 0.3731501207449799	-0.135275
C	0.7985921600109730 0.9069950262447132 0.8160957255295043	0.102700
C	0.8066296159946459 0.9845246462967266 0.8163552723103958	-0.177788
C	0.7675450733967280 0.0272899446200646 0.8748393661871429	0.112519
C	0.7223568918730585 0.9889747964146064 0.9317223833738008	-0.176477
C	0.7189459780280499 0.9111189541852545 0.9290292881870535	0.104358
C	0.7734625303910232 0.1096781529046889 0.8761171796698430	0.059401
C	0.7093542375461047 0.1534596424981047 0.8791129001489403	-0.172836
C	0.7137362639095048 0.2325448131892571 0.8779815589051716	0.085215
C	0.8513854022879195 0.2215900692490724 0.8754274934962076	-0.124067
C	0.8450982069684292 0.1446902142826716 0.8731501527449753	-0.135276
C	0.7014078399890270 0.5930049737552868 0.8160957255295043	0.102702
C	0.6933703840053541 0.5154752997032689 0.8163552723103958	-0.177789
C	0.7324549266032720 0.4727100613799359 0.8748393661871429	0.112517
C	0.7776431081269415 0.5110252575853910 0.9317223833738008	-0.176476
C	0.7810540219719501 0.5888811528147508 0.9290292881870535	0.104360
C	0.7265374696089768 0.3903218740953098 0.8761171796698430	0.059401
C	0.7906457624538953 0.3465403445018908 0.8791129001489403	-0.172838
C	0.7862637360904952 0.2674551598107442 0.8779815589051716	0.085214
C	0.6486145977120805 0.2784099177509303 0.8754274934962076	-0.124068
C	0.6549017930315708 0.3553097597173263 0.8731501527449753	-0.135276
C	0.5930049737552868 0.7985921600109730 0.8160957255295043	0.102701
C	0.5154752997032689 0.8066296159946459 0.8163552723103958	-0.177788
C	0.4727100613799359 0.7675450733967280 0.8748393661871429	0.112518
C	0.5110252575853910 0.7223568918730585 0.9317223833738008	-0.176477
C	0.5888811528147508 0.7189459780280498 0.9290292881870535	0.104360
C	0.3903218740953098 0.7734625303910232 0.8761171796698430	0.059401
C	0.3465403445018908 0.7093542375461047 0.8791129001489403	-0.172838
C	0.2674551598107442 0.7137362639095048 0.8779815589051716	0.085215
C	0.2784099177509303 0.8513854022879195 0.8754274934962076	-0.124068
C	0.3553097597173263 0.8450982069684292 0.8731501527449753	-0.135277
C	0.9069950262447132 0.7014078399890270 0.8160957255295043	0.102702
C	0.9845246462967266 0.6933703840053541 0.8163552723103958	-0.177788
C	0.0272899446200646 0.7324549266032720 0.8748393661871429	0.112517
C	0.9889747964146064 0.7776431081269415 0.9317223833738008	-0.176475
C	0.9111189541852545 0.7810540219719501 0.9290292881870535	0.104359
C	0.1096781529046889 0.7265374696089768 0.8761171796698430	0.059401
C	0.1534596424981047 0.7906457624538953 0.8791129001489403	-0.172836
C	0.2325448131892571 0.7862637360904952 0.8779815589051716	0.085214
C	0.2215900692490724 0.6486145977120805 0.8754274934962076	-0.124067
C	0.1446902142826716 0.6549017930315708 0.8731501527449753	-0.135276
C	0.2014078529890245 0.4069950262447129 0.6839042744704957	0.102700
C	0.1933703970053518 0.4845246462967268 0.6836447276896042	-0.177791
C	0.2324549266032719 0.5272899386200640 0.6251606338128571	0.112542
C	0.2776430811269429 0.4889747964146065 0.5682776166261992	-0.176475
C	0.2810539959719479 0.4111189011852535 0.5709707118129465	0.104350
C	0.2265375496089762 0.6096781789046907 0.6238828203301570	0.059358
C	0.2906457894538939 0.6534596024981084 0.6208870998510597	-0.172745
C	0.2862637360904952 0.7325447601892559 0.6220184410948284	0.085195
C	0.1486146107120849 0.7215900552490715 0.6245725065037924	-0.124039
C	0.1549017400315699 0.6446902142826719 0.6268498472550247	-0.135355
C	0.2985921070109792 0.0930049867552846 0.6839042744704957	0.102702
C	0.3066295629946448 0.0154753347032753 0.6836447276896042	-0.177790
C	0.2675450733967280 0.9727100613799360 0.6251606338128571	0.112540
C	0.2223569318730544 0.0110252005853898 0.5682776166261992	-0.176476
C	0.2189460180280531 0.0888811058147505 0.5709707118129466	0.104351
C	0.2734624503910238 0.8903218210953093 0.6238828203301570	0.059357
C	0.2093542515461060 0.8465403975018915 0.6208870998510597	-0.172744
C	0.2137362369095062 0.7674552398107441 0.6220184410948284	0.085194
C	0.3513853752879139 0.7784099447509285 0.6245725065037924	-0.124040
C	0.3450982599684302 0.8553097857173281 0.6268498472550247	-0.135357
C	0.4069950262447129 0.2985921070109792 0.6839042744704957	0.102700
C	0.4845246462967268 0.3066295629946448 0.6836447276896042	-0.177789
C	0.5272899386200640 0.2675450733967280 0.6251606338128571	0.112540
C	0.4889747964146065 0.2223569318730544 0.5682776166261992	-0.176476
C	0.4111189011852535 0.2189460180280531 0.5709707118129465	0.104351
C	0.6096781789046907 0.2734624503910238 0.6238828203301570	0.059358
C	0.6534596024981085 0.2093542515461060 0.6208870998510597	-0.172745
C	0.7325447601892559 0.2137362369095062 0.6220184410948284	0.085196
C	0.7215900552490715 0.3513853752879139 0.6245725065037924	-0.124039
C	0.6446902142826719 0.3450982599684302 0.6268498472550247	-0.135355
C	0.0930049867552846 0.2014078529890245 0.6839042744704957	0.102702
C	0.0154753347032753 0.1933703970053518 0.6836447276896042	-0.177791
C	0.9727100613799360 0.2324549266032719 0.6251606338128571	0.112542
C	0.0110252005853898 0.2776430811269429 0.5682776166261992	-0.176475
C	0.0888811058147505 0.2810539959719479 0.5709707118129465	0.104351
C	0.8903218210953093 0.2265375496089762 0.6238828203301570	0.059357
C	0.8465403975018916 0.2906457894538939 0.6208870998510597	-0.172745
C	0.7674552398107441 0.2862637360904952 0.6220184410948284	0.085194
C	0.7784099447509285 0.1486146107120849 0.6245725065037924	-0.124040
C	0.8553097857173281 0.1549017400315699 0.6268498472550247	-0.135357
H	0.1739671901765893 0.1276211900870494 0.2305333123623012	0.097000
H	0.1586561032061085 0.9881632768112302 0.2301211704408254	0.116277
H	0.3080929238643455 0.9802890127639512 0.0207819381623132	0.117003
H	0.3134470032703363 0.1205700957988737 0.0256824932780209	0.096306
H	0.3457970228178764 0.8730597377434575 0.1202361341990053	0.109198
H	0.0934669029757714 0.7517169504356818 0.1252240983382999	0.110205
H	0.1049129141719629 0.8906028005006190 0.1289714476636649	0.102142
H	0.3260327828234121 0.3723788369129563 0.2305333123623012	0.096999
H	0.3413439367938878 0.5118367231887698 0.2301211704408254	0.116277
H	0.1919070891356519 0.5197109872360488 0.0207819381623132	0.117004
H	0.1865529967296636 0.3794299042011263 0.0256824932780209	0.096306
H	0.1542029911821248 0.6269402622565425 0.1202361341990053	0.109196
H	0.4065330900242245 0.7482830495643182 0.1252240983382999	0.110205
H	0.3950870988280417 0.6093971994993810 0.1289714476636649	0.102142
H	0.3723788369129563 0.1739671901765893 0.2305333123623012	0.096999
H	0.5118367231887698 0.1586561032061085 0.2301211704408254	0.116278
H	0.5197109872360488 0.3080929238643455 0.0207819381623132	0.117003
H	0.3794299042011263 0.3134470032703363 0.0256824932780209	0.096306
H	0.6269402622565425 0.3457970228178764 0.1202361341990053	0.109199
H	0.7482830495643182 0.0934669029757714 0.1252240983382999	0.110205
H	0.6093971994993810 0.1049129141719629 0.1289714476636649	0.102143
H	0.1276211900870494 0.3260327828234121 0.2305333123623012	0.097000
H	0.9881632768112302 0.3413439367938878 0.2301211704408254	0.116276
H	0.9802890127639512 0.1919070891356519 0.0207819381623132	0.117004
H	0.1205700957988737 0.1865529967296636 0.0256824932780209	0.096306
H	0.8730597377434575 0.1542029911821248 0.1202361341990053	0.109196
H	0.7517169504356818 0.4065330900242245 0.1252240983382999	0.110205
H	0.8906028005006190 0.3950870988280417 0.1289714476636649	0.102143
H	0.8260327828234121 0.6276212170870479 0.2694667036377001	0.097001
H	0.8413438557938917 0.4881633308112278 0.2698788295591747	0.116276
H	0.6919070761356542 0.4802890127639518 0.4792180638376868	0.117003
H	0.6865530497296646 0.6205701227988725 0.4743175047219788	0.096306
H	0.6542029771821237 0.3730596837434604 0.3797638738009953	0.109209
H	0.9065330370242234 0.2517169774356801 0.3747758936616993	0.110208
H	0.8950870718280433 0.3906028265006138 0.3710285603363358	0.102128
H	0.6739672171765879 0.8723787829129521 0.2694667036377001	0.097000
H	0.6586561442061083 0.0118366851887665 0.2698788295591747	0.116277
H	0.8080929238643458 0.0197109862360448 0.4792180638376868	0.117003
H	0.8134469502703354 0.8794298772011275 0.4743175047219788	0.096305
H	0.8457970228178763 0.1269403292565443 0.3797638738009953	0.109209
H	0.5934669099757758 0.2482829955643140 0.3747758936616993	0.110205
H	0.6049129281719567 0.1093971864993836 0.3710285603363358	0.102125
H	0.6276212170870479 0.6739672171765879 0.2694667036377001	0.097001
H	0.4881633308112278 0.6586561442061083 0.2698788295591747	0.116277
H	0.4802890127639518 0.8080929238643458 0.4792180638376868	0.117003
H	0.6205701227988725 0.8134469502703354 0.4743175047219788	0.096306
H	0.3730596837434604 0.8457970228178763 0.3797638738009953	0.109211
H	0.2517169774356801 0.5934669099757758 0.3747758936616993	0.110206
H	0.3906028265006138 0.6049129281719567 0.3710285603363358	0.102127
H	0.8723787829129521 0.8260327828234121 0.2694667036377001	0.097000
H	0.0118366851887665 0.8413438557938917 0.2698788295591747	0.116276
H	0.0197109862360448 0.6919070761356542 0.4792180638376868	0.117004
H	0.8794298772011275 0.6865530497296646 0.4743175047219788	0.096305
H	0.1269403292565443 0.6542029771821237 0.3797638738009953	0.109209
H	0.2482829955643140 0.9065330370242234 0.3747758936616993	0.110206
H	0.1093971864993836 0.8950870718280433 0.3710285603363358	0.102128
H	0.8260327828234121 0.8723787829129521 0.7694666726377012	0.097000
H	0.8413438557938917 0.0118366851887665 0.7698788445591794	0.116277
H	0.6919070761356542 0.0197109862360448 0.9792180948376857	0.117003
H	0.6865530497296646 0.8794298772011275 0.9743174407219808	0.096299
H	0.6542029771821237 0.1269403292565443 0.8797638418009929	0.109209
H	0.9065330370242234 0.2482829955643140 0.8747758306616973	0.110208
H	0.8950870718280433 0.1093971864993836 0.8710285283363335	0.102127
H	0.6739672171765879 0.6276212170870479 0.7694666726377012	0.097001
H	0.6586561442061083 0.4881633308112278 0.7698788445591794	0.116277
H	0.8080929238643458 0.4802890127639518 0.9792180948376857	0.117002
H	0.8134469502703354 0.6205701227988725 0.9743174407219808	0.096300
H	0.8457970228178763 0.3730596837434604 0.8797638418009929	0.109208
H	0.5934669099757758 0.2517169774356801 0.8747758306616973	0.110205
H	0.6049129281719567 0.3906028265006138 0.8710285283363335	0.102127
H	0.6276212170870479 0.8260327828234121 0.7694666726377012	0.097001
H	0.4881633308112278 0.8413438557938917 0.7698788445591794	0.116276
H	0.4802890127639518 0.6919070761356542 0.9792180948376857	0.117003
H	0.6205701227988725 0.6865530497296646 0.9743174407219808	0.096300
H	0.3730596837434604 0.6542029771821237 0.8797638418009929	0.109210
H	0.2517169774356801 0.9065330370242234 0.8747758306616973	0.110208
H	0.3906028265006138 0.8950870718280433 0.8710285283363335	0.102128
H	0.8723787829129521 0.6739672171765879 0.7694666726377012	0.097000
H	0.0118366851887665 0.6586561442061083 0.7698788445591794	0.116278
H	0.0197109862360448 0.8080929238643458 0.9792180948376857	0.117003
H	0.8794298772011275 0.8134469502703354 0.9743174407219808	0.096299
H	0.1269403292565443 0.8457970228178763 0.8797638418009929	0.109209
H	0.2482829955643140 0.5934669099757758 0.8747758306616973	0.110204
H	0.1093971864993836 0.6049129281719567 0.8710285283363335	0.102128
H	0.1739671901765893 0.3723788369129563 0.7305333273622988	0.097000
H	0.1586561032061085 0.5118367231887698 0.7301211554408206	0.116277
H	0.3080929238643455 0.5197109872360488 0.5207819361623133	0.117002
H	0.3134470032703363 0.3794299042011263 0.5256824952780210	0.096306
H	0.3457970228178764 0.6269402622565425 0.6202361581990071	0.109199
H	0.0934669029757714 0.7482830495643182 0.6252241693383027	0.110203
H	0.1049129141719629 0.6093971994993810 0.6289714716636665	0.102141
H	0.3260327828234121 0.1276211900870494 0.7305333273622988	0.097000
H	0.3413439367938878 0.9881632768112302 0.7301211554408206	0.116277
H	0.1919070891356519 0.9802890127639512 0.5207819361623133	0.117003
H	0.1865529967296636 0.1205700957988737 0.5256824952780210	0.096307
H	0.1542029911821248 0.8730597377434575 0.6202361581990071	0.109196
H	0.4065330900242245 0.7517169504356818 0.6252241693383027	0.110203
H	0.3950870988280417 0.8906028005006190 0.6289714716636665	0.102143
H	0.3723788369129563 0.3260327828234121 0.7305333273622988	0.097000
H	0.5118367231887698 0.3413439367938878 0.7301211554408206	0.116276
H	0.5197109872360488 0.1919070891356519 0.5207819361623133	0.117003
H	0.3794299042011263 0.1865529967296636 0.5256824952780210	0.096306
H	0.6269402622565425 0.1542029911821248 0.6202361581990071	0.109199
H	0.7482830495643182 0.4065330900242245 0.6252241693383027	0.110205
H	0.6093971994993810 0.3950870988280417 0.6289714716636665	0.102144
H	0.1276211900870494 0.1739671901765893 0.7305333273622988	0.097000
H	0.9881632768112302 0.1586561032061085 0.7301211554408206	0.116277
H	0.9802890127639512 0.3080929238643455 0.5207819361623133	0.117002
H	0.1205700957988737 0.3134470032703363 0.5256824952780210	0.096307
H	0.8730597377434575 0.3457970228178764 0.6202361581990071	0.109198
H	0.7517169504356818 0.0934669029757714 0.6252241693383027	0.110202
H	0.8906028005006190 0.1049129141719629 0.6289714716636665	0.102142
F	0.3147714740623984 0.1554352322708747 0.3782204299193943	-0.695325
F	0.1852285529376002 0.3445647677291253 0.3782204299193943	-0.695324
F	0.3445647677291253 0.3147714740623984 0.3782204299193943	-0.695324
F	0.1554352322708747 0.1852285529376002 0.3782204299193943	-0.695325
F	0.6852285259376014 0.6554351782708771 0.1217795700806056	-0.695326
F	0.8147714740623986 0.8445648217291229 0.1217795700806056	-0.695325
F	0.6554351782708771 0.8147714740623986 0.1217795700806056	-0.695324
F	0.8445648217291229 0.6852285259376014 0.1217795700806056	-0.695327
F	0.6852285259376014 0.8445648217291229 0.6217795380806028	-0.695324
F	0.8147714740623986 0.6554351782708771 0.6217795380806028	-0.695325
F	0.6554351782708771 0.6852285259376014 0.6217795380806028	-0.695325
F	0.8445648217291229 0.8147714740623986 0.6217795380806028	-0.695324
F	0.3147714740623984 0.3445647677291253 0.8782204619193972	-0.695324
F	0.1852285529376002 0.1554352322708747 0.8782204619193972	-0.695325
F	0.3445647677291253 0.1852285529376002 0.8782204619193972	-0.695326
F	0.1554352322708746 0.3147714740623984 0.8782204619193972	-0.695324
F	0.2500000000000000 0.2500000000000000 0.2518724493546883	-0.610188
F	0.2500000000000000 0.2500000000000000 0.5045476117869926	-0.611638
F	0.7500000000000000 0.7500000000000000 0.2481275666453131	-0.610187
F	0.7500000000000000 0.7500000000000000 -0.0045476047869884	-0.611642
F	0.7500000000000000 0.7500000000000000 0.7481275186453091	-0.610189
F	0.7500000000000000 0.7500000000000000 0.4954524202130102	-0.611638
F	0.2500000000000000 0.2500000000000000 0.7518724813546910	-0.610188
F	0.2500000000000000 0.2500000000000000 0.0045475797869899	-0.611638
Zn	0.2500000000000000 0.2500000000000000 0.1283238399315809	0.753765
Zn	0.7500000000000000 0.7500000000000000 0.3716761760684205	0.753765
Zn	0.7500000000000000 0.7500000000000000 0.8716761450684215	0.753767
Zn	0.2500000000000000 0.2500000000000000 0.6283238549315785	0.753767
Zr	0.2500000000000000 0.2500000000000000 0.3781900582255662	2.492943
Zr	0.7500000000000000 0.7500000000000000 0.1218099497744345	2.492944
Zr	0.7500000000000000 0.7500000000000000 0.6218099107744348	2.492943
Zr	0.2500000000000000 0.2500000000000000 0.8781900892255652	2.492943
	  	
