#======================================================================

# CRYSTAL DATA

#----------------------------------------------------------------------

data_VESTA_phase_1


_pd_phase_name                         ZrFSIX_18_Co
_cell_length_a                         14.26163
_cell_length_b                         13.80220
_cell_length_c                         8.36032
_cell_angle_alpha                      90
_cell_angle_beta                       95.41366
_cell_angle_gamma                      90
_symmetry_space_group_name_H-M         P 1
_symmetry_Int_Tables_number            1

loop_
_symmetry_equiv_pos_as_xyz
   x, y, z

loop_
   _atom_site_label
   _atom_site_fract_x
   _atom_site_fract_y
   _atom_site_fract_z
   _atom_site_charge
F	0.4046553470317970 0.3571947108695095 0.4905708575800272	-0.659501
F	0.5185220384430413 0.4825074006714037 0.7490262708154493	-0.629958
F	0.3924726214660824 0.5633042495482266 0.5153840912246588	-0.631173
F	0.9046553810317922 0.8571946418695077 0.4905708575800272	-0.659500
F	0.0185220644430364 0.9825073656714044 0.7490262708154493	-0.629958
F	0.8924726554660852 0.0633042155482314 0.5153840912246588	-0.631172
F	0.5953446159682040 0.3571947108695095 0.5094291424199728	-0.659500
F	0.4814779585569619 0.4825074006714037 0.2509737291845507	-0.629958
F	0.6075273745339173 0.5633042495482266 0.4846159097753449	-0.631173
F	0.0953446369682019 0.8571946418695077 0.5094291424199728	-0.659500
F	0.9814778235569614 0.9825073656714044 0.2509737291845507	-0.629957
F	0.1075273495339187 0.0633042155482314 0.4846159097753449	-0.631173
C	0.6816310421319060 0.1530607251969919 0.6676957764425102	-0.425189
C	0.7549518165905226 0.1506842641555123 0.8065676667826194	0.215399
C	0.7599089741235555 0.1973077057636485 0.9559828143603563	-0.151771
C	0.6893826037873065 0.2616288126926654 0.0147028676545918	-0.142051
C	0.6743381919977397 0.3606782386254546 0.9741147783192334	0.220963
C	0.7311338559301843 0.4228247265162743 0.8738011751266260	-0.424699
C	0.8899630082955892 0.2055475323658644 0.1954539879116113	-0.433822
C	0.8486338860420499 0.1717842284857882 0.0349694479914452	0.221986
C	0.6226114413155003 0.2391483517419067 0.1216458722572748	0.211896
C	0.6018012464667420 0.1482575816835254 0.2076189808952529	-0.424820
C	0.1816310921319031 0.6530607771969892 0.6676957764425102	-0.425189
C	0.2549518505905257 0.6506842471555074 0.8065676667826194	0.215399
C	0.2599089401235524 0.6973076717636454 0.9559828143603563	-0.151771
C	0.1893826037873071 0.7616288296926628 0.0147028676545918	-0.142051
C	0.1743381749977356 0.8606782726254572 0.9741147783192334	0.220964
C	0.2311338719301781 0.9228246915162749 0.8738011751266260	-0.424696
C	0.3899629072955846 0.7055474463658647 0.1954539879116113	-0.433793
C	0.3486339540420486 0.6717842284857880 0.0349694479914452	0.221985
C	0.1226114163155016 0.7391482657419068 0.1216458722572748	0.211896
C	0.1018013304667422 0.6482576506835277 0.2076189808952529	-0.424820
C	0.3183689548680972 0.1530607251969919 0.3323042245574938	-0.425166
C	0.2450481764094732 0.1506842641555123 0.1934322532173818	0.215374
C	0.2400910548764435 0.1973077057636485 0.0440171616396491	-0.151768
C	0.3106173922126927 0.2616288126926654 0.9852971233454111	-0.142051
C	0.3256618740022647 0.3606782386254546 0.0258852726807670	0.220963
C	0.2688661590698209 0.4228247265162743 0.1261988408733755	-0.424699
C	0.1100370747044137 0.2055475323658644 0.8045460600883925	-0.433823
C	0.1513660929579516 0.1717842284857882 0.9650305400085538	0.221986
C	0.3773885896844987 0.2391483517419067 0.8783541517427199	0.211896
C	0.3981986795332588 0.1482575816835254 0.7923809401047512	-0.424820
C	0.8183689548680974 0.6530607771969892 0.3323042245574938	-0.425190
C	0.7450481764094733 0.6506842471555074 0.1934322532173818	0.215399
C	0.7400910208764477 0.6973076717636454 0.0440171616396491	-0.151771
C	0.8106173922126931 0.7616288296926628 0.9852971233454111	-0.142051
C	0.8256618070022638 0.8606782726254572 0.0258852726807670	0.220964
C	0.7688661420698155 0.9228246915162749 0.1261988408733755	-0.424696
C	0.6100369907044143 0.7055474463658647 0.8045460600883925	-0.433793
C	0.6513661099579497 0.6717842284857880 0.9650305400085538	0.221985
C	0.8773885556844959 0.7391482657419068 0.8783541517427199	0.211896
C	0.8981987465332609 0.6482576506835277 0.7923809401047512	-0.424821
H	0.7123403086378549 0.1726450210009854 0.5564392400095455	0.155483
H	0.6281924109959450 0.2075680931997100 0.6880073069983451	0.142625
H	0.6471873839711695 0.0820864908875961 0.6476502159503178	0.132752
H	0.6861935227360674 0.4672065332589232 0.7894215333746178	0.138313
H	0.7765606744645099 0.3775302288091494 0.8058151581332391	0.141548
H	0.7765048970322979 0.4718454415906415 0.9507182250160133	0.128973
H	0.8602644185363149 0.0704170866120131 0.7025385765990323	0.279313
H	0.8907631767848853 0.1485671807537421 0.2870967467661003	0.144703
H	0.8480242319403577 0.2662345094121997 0.2349978612056693	0.137105
H	0.9628335280843763 0.2298930757567001 0.1896907101737252	0.141223
H	0.5798034513922000 0.1646532140176513 0.3271878181340548	0.150150
H	0.6643428749236914 0.1016633502696606 0.2216482187605066	0.152514
H	0.5445491558382954 0.1068662384436234 0.1412690111702965	0.130868
H	0.5184862913730545 0.3322707623813387 0.2051544144166902	0.262922
H	0.2123403596378556 0.6726449180009874 0.5564392400095455	0.155483
H	0.1281924949959448 0.7075680241997080 0.6880073069983451	0.142625
H	0.1471874339711662 0.5820864308875917 0.6476502159503178	0.132753
H	0.1861935397360647 0.9672064652589168 0.7894215333746178	0.138310
H	0.2765607084645126 0.8775302628091525 0.8058151581332391	0.141548
H	0.2765049300322968 0.9718454415906419 0.9507182250160133	0.128972
H	0.3602643845363191 0.5704171296120134 0.7025385765990323	0.279313
H	0.3907632437848874 0.6485671467537395 0.2870967467661003	0.144709
H	0.3480241639403595 0.7662345444121986 0.2349978612056693	0.137078
H	0.4628335950843714 0.7298931267566937 0.1896907101737252	0.141216
H	0.0798034433921988 0.6646532310176495 0.3271878181340548	0.150151
H	0.1643428409236884 0.6016633072696607 0.2216482187605066	0.152514
H	0.0445491918382986 0.6068661864436264 0.1412690111702965	0.130868
H	0.0184862763730571 0.8322707623813383 0.2051544144166902	0.262922
H	0.2876596223621501 0.1726450210009854 0.4435607919904500	0.155482
H	0.3718074880040501 0.2075680931997100 0.3119927580016568	0.142610
H	0.3528125450288356 0.0820864908875961 0.3523497840496821	0.132751
H	0.3138064722639363 0.4672065332589232 0.2105784346253866	0.138313
H	0.2234393205354861 0.3775302288091494 0.1941848098667587	0.141548
H	0.2234950989677092 0.4718454415906415 0.0492817479839882	0.128974
H	0.1397355824636819 0.0704170866120131 0.2974613284009633	0.279325
H	0.1092367462151118 0.1485671807537421 0.7129032852339026	0.144703
H	0.1519758320596403 0.2662345094121997 0.7650021387943308	0.137105
H	0.0371664009156283 0.2298930757567001 0.8103093218262700	0.141223
H	0.4201965786078029 0.1646532140176513 0.6728121818659452	0.150151
H	0.3356571870763140 0.1016633502696606 0.7783517332394897	0.152514
H	0.4554508091617049 0.1068662384436234 0.8587310288297069	0.130869
H	0.4815136696269454 0.3322707623813387 0.7948455385833095	0.262922
H	0.7876596893621449 0.6726449180009874 0.4435607919904500	0.155483
H	0.8718075890040550 0.7075680241997080 0.3119927580016568	0.142625
H	0.8528125450288353 0.5820864308875917 0.3523497840496821	0.132753
H	0.8138064722639358 0.9672064652589168 0.2105784346253866	0.138310
H	0.7234393205354861 0.8775302628091525 0.1941848098667587	0.141548
H	0.7234950989677089 0.9718454415906419 0.0492817479839882	0.128973
H	0.6397355734636845 0.5704171296120134 0.2974613284009633	0.279313
H	0.6092368552151103 0.6485671467537395 0.7129032852339026	0.144709
H	0.6519757650596385 0.7662345444121986 0.7650021387943308	0.137078
H	0.5371664369156244 0.7298931267566937 0.8103093218262700	0.141216
H	0.9201965116078005 0.6646532310176495 0.6728121818659452	0.150151
H	0.8356571200763119 0.6016633072696607 0.7783517332394897	0.152514
H	0.9554508091617052 0.6068661864436264 0.8587310288297069	0.130868
H	0.9815136356269502 0.8322707623813383 0.7948455385833095	0.262922
N	0.8355134823772996 0.0998941599218593 0.8041316114148339	-0.146814
N	0.6016713640790379 0.3955319397923511 0.0486393628144890	-0.269634
N	0.8939581523159273 0.1118617882508990 0.9406384323249464	-0.281025
N	0.5728381975488311 0.3210222925968141 0.1372579041311589	-0.145866
N	0.3355134823772993 0.5998940829218636 0.8041316114148339	-0.146814
N	0.1016714310790396 0.8955319397923512 0.0486393628144890	-0.269634
N	0.3939581863159303 0.6118618392508997 0.9406384323249464	-0.281024
N	0.0728381895488304 0.8210222575968150 0.1372579041311589	-0.145866
N	0.1644864996226990 0.0998941599218593 0.1958684365851634	-0.146799
N	0.3983285299209606 0.3955319397923511 0.9513606131855091	-0.269634
N	0.1060418176840700 0.1118617882508990 0.0593615476750521	-0.281030
N	0.4271617994511724 0.3210222925968141 0.8627421118688423	-0.145866
N	0.6644865166226968 0.5998940829218636 0.1958684365851634	-0.146814
N	0.8983286309209653 0.8955319397923512 0.9513606131855091	-0.269634
N	0.6060418426840758 0.6118618392508997 0.0593615476750521	-0.281024
N	0.9271618334511679 0.8210222575968150 0.8627421118688423	-0.145866
Zr	0.4999999979999998 0.4654434519517154 0.5000000000000000	2.440908
Zr	0.0000000000000000 0.9654434519517152 0.5000000000000000	2.440908
Co	0.5000000000000000 0.5099048505030308 0.0000000000000000	0.874259
Co	0.0000000000000000 0.0099048575030351 0.0000000000000000	0.874257
	  	
