#======================================================================

# CRYSTAL DATA

#----------------------------------------------------------------------

data_VESTA_phase_1


_pd_phase_name                         ZrFSIX_4_Ni_i
_cell_length_a                         23.61412
_cell_length_b                         20.51232
_cell_length_c                         9.48473
_cell_angle_alpha                      90
_cell_angle_beta                       90
_cell_angle_gamma                      90
_symmetry_space_group_name_H-M         P 1
_symmetry_Int_Tables_number            1

loop_
_symmetry_equiv_pos_as_xyz
   x, y, z

loop_
   _atom_site_label
   _atom_site_fract_x
   _atom_site_fract_y
   _atom_site_fract_z
   _atom_site_charge
C	0.4158450690344431 0.5970319758775817 0.6294773598235897	0.098256
C	0.3723122372901266 0.5516696158589555 0.6270964901815659	-0.168009
C	0.2770126513027714 0.4491639207044282 0.6263917763820724	-0.113852
C	0.2313863313076761 0.4065527593181487 0.6250869023614561	-0.112734
C	0.1306338510501662 0.3201851811201535 0.6239405462183710	-0.165944
C	0.0842709874882074 0.2786762833345676 0.6276283308299507	0.091802
C	0.9158451520344386 0.0970319868775860 0.6294773598235897	0.098257
C	0.8723121952901304 0.0516695578589579 0.6270964901815659	-0.168009
C	0.7770126723027765 0.9491639677044285 0.6263917763820724	-0.113852
C	0.7313863113076743 0.9065528053181452 0.6250869023614561	-0.112733
C	0.6306338510501668 0.8201852281201540 0.6239405462183710	-0.165944
C	0.5842709724882020 0.7786763763345649 0.6276283308299507	0.091802
C	0.5841549309655576 0.4029679781224146 0.1294773678235902	0.098251
C	0.6276878047098696 0.4483304301410482 0.1270965051815640	-0.167999
C	0.7229873276972235 0.5508360322955715 0.1263917843820730	-0.113852
C	0.7686136886923257 0.5934472406818515 0.1250869103614567	-0.112724
C	0.8693661489498332 0.6798148188798463 0.1239405532183757	-0.165912
C	0.9157290275117980 0.7213236706654355 0.1276283458299487	0.091796
C	0.0841549419655615 0.9029680711224186 0.1294773678235901	0.098251
C	0.1276877627098733 0.9483303381410478 0.1270965051815640	-0.167999
C	0.2229873696972267 0.0508360792955719 0.1263917843820730	-0.113851
C	0.2686136476923257 0.0934472176818532 0.1250869103614567	-0.112734
C	0.3693661909498374 0.1798148298798438 0.1239405532183757	-0.165944
C	0.4157290275117975 0.2213237406654344 0.1276283458299487	0.091801
C	0.5841549309655576 0.5970319758775817 0.8705226091764113	0.098251
C	0.6276878047098696 0.5516696158589555 0.8729034788184351	-0.167997
C	0.7229873276972235 0.4491639207044282 0.8736082546179266	-0.113852
C	0.7686136886923257 0.4065527593181487 0.8749131286385429	-0.112724
C	0.8693661489498332 0.3201851811201535 0.8760594847816280	-0.165914
C	0.9157290275117980 0.2786762833345676 0.8723717001700483	0.091797
C	0.0841549419655615 0.0970319868775860 0.8705226091764113	0.098251
C	0.1276877627098733 0.0516695578589579 0.8729034788184351	-0.167997
C	0.2229873696972267 0.9491639677044285 0.8736082546179266	-0.113852
C	0.2686136476923257 0.9065528053181452 0.8749131286385429	-0.112734
C	0.3693661909498374 0.8201852281201540 0.8760594847816280	-0.165945
C	0.4157290275117975 0.7786763763345649 0.8723717001700483	0.091802
C	0.4158450690344431 0.4029679781224146 0.3705226401764105	0.098251
C	0.3723122372901266 0.4483304301410482 0.3729034788184349	-0.167999
C	0.2770126513027714 0.5508360322955715 0.3736082236179278	-0.113851
C	0.2313863313076761 0.5934472406818515 0.3749130666385448	-0.112734
C	0.1306338510501662 0.6798148188798463 0.3760594227816222	-0.165945
C	0.0842709874882074 0.7213236706654355 0.3723716381700501	0.091801
C	0.9158451520344386 0.9029680711224186 0.3705226401764105	0.098251
C	0.8723121952901304 0.9483303381410478 0.3729034788184349	-0.167999
C	0.7770126723027765 0.0508360792955719 0.3736082236179278	-0.113851
C	0.7313863113076743 0.0934472176818532 0.3749130666385448	-0.112734
C	0.6306338510501668 0.1798148298798438 0.3760594227816222	-0.165944
C	0.5842709724882020 0.2213237406654344 0.3723716381700501	0.091801
C	0.5841549309655576 0.4029679781224146 0.3705226401764105	0.098251
C	0.6276878047098696 0.4483304301410482 0.3729034788184349	-0.167999
C	0.7229873276972235 0.5508360322955715 0.3736082236179278	-0.113851
C	0.7686136886923257 0.5934472406818515 0.3749130666385448	-0.112724
C	0.8693661489498332 0.6798148188798463 0.3760594227816222	-0.165914
C	0.9157290275117980 0.7213236706654355 0.3723716381700501	0.091795
C	0.0841549419655615 0.9029680711224186 0.3705226401764105	0.098251
C	0.1276877627098733 0.9483303381410478 0.3729034788184349	-0.167999
C	0.2229873696972267 0.0508360792955719 0.3736082236179278	-0.113851
C	0.2686136476923257 0.0934472176818532 0.3749130666385448	-0.112734
C	0.3693661909498374 0.1798148298798438 0.3760594227816222	-0.165945
C	0.4157290275117975 0.2213237406654344 0.3723716381700501	0.091800
C	0.4158450690344431 0.5970319758775817 0.8705226091764113	0.098251
C	0.3723122372901266 0.5516696158589555 0.8729034788184351	-0.167997
C	0.2770126513027714 0.4491639207044282 0.8736082546179266	-0.113852
C	0.2313863313076761 0.4065527593181487 0.8749131286385429	-0.112734
C	0.1306338510501662 0.3201851811201535 0.8760594847816280	-0.165945
C	0.0842709874882074 0.2786762833345676 0.8723717001700483	0.091801
C	0.9158451520344386 0.0970319868775860 0.8705226091764113	0.098251
C	0.8723121952901304 0.0516695578589579 0.8729034788184351	-0.167996
C	0.7770126723027765 0.9491639677044285 0.8736082546179266	-0.113852
C	0.7313863113076743 0.9065528053181452 0.8749131286385429	-0.112733
C	0.6306338510501668 0.8201852281201540 0.8760594847816280	-0.165946
C	0.5842709724882020 0.7786763763345649 0.8723717001700483	0.091801
C	0.4158450690344431 0.4029679781224146 0.1294773678235902	0.098251
C	0.3723122372901266 0.4483304301410482 0.1270965051815640	-0.167999
C	0.2770126513027714 0.5508360322955715 0.1263917843820730	-0.113851
C	0.2313863313076761 0.5934472406818515 0.1250869103614567	-0.112734
C	0.1306338510501662 0.6798148188798463 0.1239405532183757	-0.165946
C	0.0842709874882074 0.7213236706654355 0.1276283458299487	0.091801
C	0.9158451520344386 0.9029680711224186 0.1294773678235901	0.098251
C	0.8723121952901304 0.9483303381410478 0.1270965051815640	-0.167998
C	0.7770126723027765 0.0508360792955719 0.1263917843820730	-0.113851
C	0.7313863113076743 0.0934472176818532 0.1250869103614567	-0.112734
C	0.6306338510501668 0.1798148298798438 0.1239405532183757	-0.165946
C	0.5842709724882020 0.2213237406654344 0.1276283458299487	0.091801
C	0.5841549309655576 0.5970319758775817 0.6294773598235897	0.098257
C	0.6276878047098696 0.5516696158589555 0.6270964901815659	-0.168009
C	0.7229873276972235 0.4491639207044282 0.6263917763820724	-0.113852
C	0.7686136886923257 0.4065527593181487 0.6250869023614561	-0.112724
C	0.8693661489498332 0.3201851811201535 0.6239405462183710	-0.165915
C	0.9157290275117980 0.2786762833345676 0.6276283308299507	0.091796
C	0.0841549419655615 0.0970319868775860 0.6294773598235897	0.098257
C	0.1276877627098733 0.0516695578589579 0.6270964901815659	-0.168009
C	0.2229873696972267 0.9491639677044285 0.6263917763820724	-0.113852
C	0.2686136476923257 0.9065528053181452 0.6250869023614561	-0.112734
C	0.3693661909498374 0.8201852281201540 0.6239405462183710	-0.165946
C	0.4157290275117975 0.7786763763345649 0.6276283308299507	0.091801
C	0.3481046471029940 0.5249001864393182 0.7500000149999977	0.119870
C	0.3013859698894746 0.4749620881835044 0.7500000149999977	0.072502
C	0.2058534892106570 0.3848541549310027 0.7500000149999977	0.065814
C	0.1558445259080716 0.3417171008476764 0.7500000149999977	0.104249
C	0.8481046051029975 0.0249001694393204 0.7500000149999977	0.119869
C	0.8013860318894729 0.9749620411835038 0.7500000149999977	0.072502
C	0.7058534892106576 0.8848541779310012 0.7500000149999977	0.065814
C	0.6558445259080710 0.8417170318476738 0.7500000149999977	0.104249
C	0.6518953528970062 0.4750998595606785 0.2500000000000000	0.119877
C	0.6986139681105271 0.5250379118164958 0.2500000000000000	0.072501
C	0.7941465107893424 0.6151458690689990 0.2500000000000000	0.065753
C	0.8441555150919360 0.6582828761523257 0.2500000000000000	0.104254
C	0.1518953638970032 0.9750999065606788 0.2500000000000000	0.119877
C	0.1986140511105237 0.0250379148164924 0.2500000000000000	0.072501
C	0.2941465107893433 0.1151458220689990 0.2500000000000000	0.065815
C	0.3441554740919283 0.1582829101523283 0.2500000000000000	0.104248
C	0.6518953528970062 0.5249001864393182 0.7500000149999977	0.119869
C	0.6986139681105271 0.4749620881835044 0.7500000149999977	0.072503
C	0.7941465107893423 0.3848541549310027 0.7500000149999977	0.065753
C	0.8441555150919360 0.3417171008476764 0.7500000149999977	0.104254
C	0.1518953638970032 0.0249001694393204 0.7500000149999977	0.119870
C	0.1986140511105237 0.9749620411835038 0.7500000149999977	0.072503
C	0.2941465107893433 0.8848541779310013 0.7500000149999977	0.065815
C	0.3441554740919283 0.8417170318476738 0.7500000149999977	0.104249
C	0.3481046471029940 0.4750998595606785 0.2500000000000000	0.119877
C	0.3013859698894746 0.5250379118164958 0.2500000000000000	0.072501
C	0.2058534892106570 0.6151458690689990 0.2500000000000000	0.065815
C	0.1558445259080716 0.6582828761523257 0.2500000000000000	0.104248
C	0.8481046051029975 0.9750999065606788 0.2500000000000000	0.119877
C	0.8013860318894729 0.0250379148164924 0.2500000000000000	0.072500
C	0.7058534892106577 0.1151458220689990 0.2500000000000000	0.065815
C	0.6558445259080710 0.1582829101523283 0.2500000000000000	0.104248
H	0.4334200958027531 0.6158736361934717 0.5312823956801500	0.106627
H	0.3592996816132840 0.5391376992351308 0.5221047175704343	0.108027
H	0.2929876594018728 0.4611833779865479 0.5237063234640594	0.086203
H	0.2159731352952747 0.3905030217543011 0.5224926021312774	0.104490
H	0.1465275935342688 0.3347015450838365 0.5209261489381073	0.123819
H	0.0645697254151274 0.2609372067353459 0.5307741619354381	0.109235
H	0.9334200538027496 0.1158736711934716 0.5312823956801500	0.106627
H	0.8592996406132837 0.0391376352351260 0.5221047175704343	0.108027
H	0.7929876384018744 0.9611833779865482 0.5237063234640594	0.086203
H	0.7159730932952711 0.8905029527543058 0.5224926021312774	0.104490
H	0.6465275835342684 0.8347015450838368 0.5209261489381073	0.123819
H	0.5645697564151261 0.7609371837353478 0.5307741619354381	0.109235
H	0.5665799041972469 0.3841263638065278 0.0312824576801481	0.106627
H	0.6407003183867165 0.4608623477648688 0.0221047175704343	0.108015
H	0.7070123615981256 0.5388165760134480 0.0237063854640577	0.086203
H	0.7840269067047289 0.6094969552456937 0.0224925411312763	0.104489
H	0.8534724164657316 0.6652984089161594 0.0209261489381070	0.123812
H	0.9354302025848741 0.7390628162646522 0.0307741309354395	0.109235
H	0.0665799101972475 0.8841263638065283 0.0312824576801481	0.106627
H	0.1407003593867159 0.9608623477648696 0.0221047175704343	0.108015
H	0.2070123615981254 0.0388166190134483 0.0237063854640577	0.086203
H	0.2840268647047253 0.1094969892456963 0.0224925411312763	0.104490
H	0.3534724164657319 0.1652984319161581 0.0209261489381070	0.123819
H	0.4354302435848736 0.2390627932646540 0.0307741309354395	0.109235
H	0.5665799041972469 0.6158736361934717 -0.0312824146801482	0.106627
H	0.6407003183867165 0.5391376992351308 -0.0221047445704402	0.108015
H	0.7070123615981256 0.4611833779865479 -0.0237063414640540	0.086203
H	0.7840269067047289 0.3905030217543011 -0.0224925951312736	0.104489
H	0.8534724164657316 0.3347015450838365 -0.0209261489381073	0.123812
H	0.9354302025848741 0.2609372067353459 -0.0307741689354425	0.109235
H	0.0665799101972475 0.1158736711934716 -0.0312824146801482	0.106627
H	0.1407003593867159 0.0391376352351260 -0.0221047445704402	0.108015
H	0.2070123615981254 0.9611833779865482 -0.0237063414640540	0.086203
H	0.2840268647047253 0.8905029527543058 -0.0224925951312736	0.104490
H	0.3534724164657319 0.8347015450838368 -0.0209261489381073	0.123819
H	0.4354302435848736 0.7609371837353478 -0.0307741689354425	0.109235
H	0.4334200958027531 0.3841263638065278 0.4687175733198509	0.106627
H	0.3592996816132840 0.4608623477648688 0.4778953134295646	0.108015
H	0.2929876594018728 0.5388165760134480 0.4762936455359412	0.086203
H	0.2159731352952747 0.6094969552456937 0.4775073668687234	0.104490
H	0.1465275935342688 0.6652984089161594 0.4790738200618939	0.123818
H	0.0645697254151274 0.7390628162646522 0.4692258380645614	0.109235
H	0.9334200538027496 0.8841263638065283 0.4687175733198509	0.106627
H	0.8592996406132837 0.9608623477648696 0.4778953134295646	0.108015
H	0.7929876384018744 0.0388166190134483 0.4762936455359412	0.086203
H	0.7159730932952711 0.1094969892456963 0.4775073668687234	0.104490
H	0.6465275835342684 0.1652984319161581 0.4790738200618939	0.123818
H	0.5645697564151261 0.2390627932646540 0.4692258380645615	0.109235
H	0.5665799041972469 0.3841263638065278 0.4687175733198509	0.106627
H	0.6407003183867165 0.4608623477648688 0.4778953134295646	0.108015
H	0.7070123615981256 0.5388165760134480 0.4762936455359412	0.086203
H	0.7840269067047289 0.6094969552456937 0.4775073668687234	0.104489
H	0.8534724164657316 0.6652984089161594 0.4790738200618939	0.123811
H	0.9354302025848741 0.7390628162646522 0.4692258380645615	0.109235
H	0.0665799101972475 0.8841263638065283 0.4687175733198509	0.106627
H	0.1407003593867159 0.9608623477648696 0.4778953134295646	0.108015
H	0.2070123615981254 0.0388166190134483 0.4762936455359412	0.086203
H	0.2840268647047253 0.1094969892456963 0.4775073668687234	0.104490
H	0.3534724164657319 0.1652984319161581 0.4790738200618939	0.123818
H	0.4354302435848736 0.2390627932646540 0.4692258380645615	0.109235
H	0.4334200958027531 0.6158736361934717 -0.0312824146801482	0.106627
H	0.3592996816132840 0.5391376992351308 -0.0221047445704402	0.108015
H	0.2929876594018728 0.4611833779865479 -0.0237063414640540	0.086203
H	0.2159731352952747 0.3905030217543011 -0.0224925951312736	0.104490
H	0.1465275935342688 0.3347015450838365 -0.0209261489381073	0.123818
H	0.0645697254151274 0.2609372067353459 -0.0307741689354425	0.109235
H	0.9334200538027496 0.1158736711934716 -0.0312824146801482	0.106627
H	0.8592996406132837 0.0391376352351260 -0.0221047445704402	0.108014
H	0.7929876384018744 0.9611833779865482 -0.0237063414640540	0.086203
H	0.7159730932952711 0.8905029527543058 -0.0224925951312736	0.104490
H	0.6465275835342684 0.8347015450838368 -0.0209261489381073	0.123818
H	0.5645697564151261 0.7609371837353478 -0.0307741689354425	0.109235
H	0.4334200958027531 0.3841263638065278 0.0312824576801481	0.106627
H	0.3592996816132840 0.4608623477648688 0.0221047175704343	0.108015
H	0.2929876594018728 0.5388165760134480 0.0237063854640577	0.086203
H	0.2159731352952747 0.6094969552456937 0.0224925411312763	0.104490
H	0.1465275935342688 0.6652984089161594 0.0209261489381070	0.123818
H	0.0645697254151274 0.7390628162646522 0.0307741309354395	0.109235
H	0.9334200538027496 0.8841263638065283 0.0312824576801481	0.106627
H	0.8592996406132837 0.9608623477648696 0.0221047175704343	0.108015
H	0.7929876384018744 0.0388166190134483 0.0237063854640577	0.086203
H	0.7159730932952711 0.1094969892456963 0.0224925411312763	0.104490
H	0.6465275835342684 0.1652984319161581 0.0209261489381070	0.123818
H	0.5645697564151261 0.2390627932646540 0.0307741309354395	0.109235
H	0.5665799041972469 0.6158736361934717 0.5312823956801500	0.106627
H	0.6407003183867165 0.5391376992351308 0.5221047175704343	0.108027
H	0.7070123615981256 0.4611833779865479 0.5237063234640594	0.086203
H	0.7840269067047289 0.3905030217543011 0.5224926021312774	0.104489
H	0.8534724164657316 0.3347015450838365 0.5209261489381073	0.123812
H	0.9354302025848741 0.2609372067353459 0.5307741619354381	0.109235
H	0.0665799101972475 0.1158736711934716 0.5312823956801500	0.106627
H	0.1407003593867159 0.0391376352351260 0.5221047175704343	0.108027
H	0.2070123615981254 0.9611833779865482 0.5237063234640594	0.086203
H	0.2840268647047253 0.8905029527543058 0.5224926021312774	0.104490
H	0.3534724164657319 0.8347015450838368 0.5209261489381073	0.123819
H	0.4354302435848736 0.7609371837353478 0.5307741619354381	0.109235
Ni	0.5000000000000000 0.6886062982551053 0.7500000149999977	0.468674
Ni	-0.0000000000000000 0.1886063562551031 0.7500000149999977	0.468674
Ni	0.5000000000000000 0.3113936317448957 0.2500000000000000	0.468674
Ni	-0.0000000000000000 0.8113937017448947 0.2500000000000000	0.468674
F	0.5000000000000000 0.6850639904088207 0.4764327431122756	-0.657325
F	-0.0000000000000000 0.1850640254088199 0.4764327431122756	-0.657325
F	0.5000000000000000 0.3149359865911740 -0.0235672568877246	-0.657325
F	-0.0000000000000000 0.8149360095911793 -0.0235672568877246	-0.657325
F	0.5000000000000000 0.6850639904088207 0.0235672428877234	-0.657325
F	-0.0000000000000000 0.1850640254088199 0.0235672428877234	-0.657325
F	0.5000000000000000 0.3149359865911740 0.5235672268877222	-0.657325
F	-0.0000000000000000 0.8149360095911793 0.5235672268877222	-0.657325
F	0.4384400241154560 0.7524859333431526 0.2500000000000000	-0.696189
F	0.5605110932035929 0.6122676770544457 0.2500000000000000	-0.685229
F	0.9384400241154559 0.2524859333431522 0.2500000000000000	-0.696189
F	0.0605111142035984 0.1122676770544460 0.2500000000000000	-0.685229
F	0.5615599348845443 0.2475140436568494 0.7500000149999977	-0.696189
F	0.4394889067964067 0.3877323229455539 0.7500000149999977	-0.685229
F	0.0615599868845484 0.7475140666568474 0.7500000149999977	-0.696189
F	0.9394889067964071 0.8877323229455543 0.7500000149999977	-0.685229
F	0.5615599348845443 0.7524859333431526 0.2500000000000000	-0.696189
F	0.4394889067964067 0.6122676770544457 0.2500000000000000	-0.685229
F	0.0615599868845484 0.2524859333431522 0.2500000000000000	-0.696189
F	0.9394889067964071 0.1122676770544460 0.2500000000000000	-0.685229
F	0.4384400241154560 0.2475140436568494 0.7500000149999977	-0.696189
F	0.5605110932035929 0.3877323229455539 0.7500000149999977	-0.685229
F	0.9384400241154559 0.7475140666568474 0.7500000149999977	-0.696189
F	0.0605111142035984 0.8877323229455543 0.7500000149999977	-0.685229
N	0.4382602722399732 0.6197304195107027 0.7500000149999977	-0.158157
N	0.5616646453431942 0.7576284228745775 0.7500000149999977	-0.168531
N	0.9382602312399665 0.1197304075107013 0.7500000149999977	-0.158157
N	0.0616646193431920 0.2576283998745725 0.7500000149999977	-0.168531
N	0.5617397277600266 0.3802695804892978 0.2500000000000000	-0.158155
N	0.4383353546568058 0.2423716001254277 0.2500000000000000	-0.168531
N	0.0617397277600266 0.8802695804892973 0.2500000000000000	-0.158155
N	0.9383353956568057 0.7423715771254225 0.2500000000000000	-0.168529
N	0.5617397277600266 0.6197304195107026 0.7500000149999977	-0.158158
N	0.4383353546568058 0.7576284228745775 0.7500000149999977	-0.168531
N	0.0617397277600266 0.1197304075107013 0.7500000149999977	-0.158157
N	0.9383353956568057 0.2576283998745725 0.7500000149999977	-0.168530
N	0.4382602722399732 0.3802695804892978 0.2500000000000000	-0.158155
N	0.5616646453431942 0.2423716001254277 0.2500000000000000	-0.168531
N	0.9382602312399665 0.8802695804892974 0.2500000000000000	-0.158156
N	0.0616646193431920 0.7423715771254225 0.2500000000000000	-0.168531
Zr	0.5000000000000000 0.6829867912193383 0.2500000000000000	2.465656
Zr	-0.0000000000000000 0.1829868152193404 0.2500000000000000	2.465656
Zr	0.5000000000000000 0.3170131617806611 0.7500000149999977	2.465656
Zr	-0.0000000000000000 0.8170132087806617 0.7500000149999977	2.465656
	  	
