#======================================================================

# CRYSTAL DATA

#----------------------------------------------------------------------

data_VESTA_phase_1


_pd_phase_name                         ZrFSIX_1_Ni
_cell_length_a                         11.27419
_cell_length_b                         11.27419
_cell_length_c                         8.19548
_cell_angle_alpha                      90
_cell_angle_beta                       90
_cell_angle_gamma                      90
_symmetry_space_group_name_H-M         P 1
_symmetry_Int_Tables_number            1

loop_
_symmetry_equiv_pos_as_xyz
   x, y, z

loop_
   _atom_site_label
   _atom_site_fract_x
   _atom_site_fract_y
   _atom_site_fract_z
   _atom_site_charge
C	0.2531125241693893 0.4578822204588723 0.3710854048914307	0.106753
C	0.1298573479735990 0.4576044585493746 0.3659072480519726	-0.169075
C	0.7468875628306143 0.5421178225411275 0.3710854048914307	0.106761
C	0.8701426960264046 0.5423955414506257 0.3659072480519726	-0.169061
C	0.5421178225411275 0.2531125241693893 0.3710854048914307	0.106753
C	0.5423955414506257 0.1298573479735990 0.3659072480519726	-0.169075
C	0.4578822204588723 0.7468875628306143 0.3710854048914307	0.106761
C	0.4576044585493746 0.8701426960264046 0.3659072480519726	-0.169061
C	0.7468875628306143 0.4578822204588723 0.6289145651085668	0.106761
C	0.8701426960264046 0.4576044585493746 0.6340927229480214	-0.169060
C	0.2531125241693893 0.5421178225411275 0.6289145651085668	0.106754
C	0.1298573479735990 0.5423955414506257 0.6340927229480214	-0.169074
C	0.4578822204588723 0.2531125241693893 0.6289145651085668	0.106754
C	0.4576044585493746 0.1298573479735990 0.6340927229480214	-0.169074
C	0.5421178225411275 0.7468875628306143 0.6289145651085668	0.106761
C	0.5423955414506257 0.8701426960264046 0.6340927229480214	-0.169060
C	0.0655000450980822 0.5000000000000000 0.5000000000000000	0.102062
C	0.9345000309019171 0.5000000000000000 0.5000000000000000	0.102060
C	0.5000000000000000 0.0655000450980822 0.5000000000000000	0.102062
C	0.5000000000000000 0.9345000309019171 0.5000000000000000	0.102060
H	0.3046425143930162 0.4237642261860052 0.2687403335963666	0.092210
H	0.0848936806160508 0.4222286101979185 0.2588638440347006	0.125082
H	0.6953574426069840 0.5762357738139948 0.2687403335963666	0.092200
H	0.9151063353839507 0.5777713898020814 0.2588638440347006	0.125079
H	0.5762357738139948 0.3046425143930162 0.2687403335963666	0.092210
H	0.5777713898020814 0.0848936806160508 0.2588638440347006	0.125082
H	0.4237642261860052 0.6953574426069840 0.2687403335963666	0.092200
H	0.4222286101979185 0.9151063353839507 0.2588638440347006	0.125079
H	0.6953574426069840 0.4237642261860052 0.7312596374036345	0.092200
H	0.9151063353839507 0.4222286101979185 0.7411362149653008	0.125078
H	0.3046425143930162 0.5762357738139948 0.7312596374036345	0.092210
H	0.0848936806160508 0.5777713898020814 0.7411362149653008	0.125080
H	0.4237642261860052 0.3046425143930162 0.7312596374036345	0.092210
H	0.4222286101979185 0.0848936806160508 0.7411362149653008	0.125081
H	0.5762357738139948 0.6953574426069840 0.7312596374036345	0.092200
H	0.5777713898020814 0.9151063353839507 0.7411362149653008	0.125079
Ni	0.5000000000000000 0.5000000000000000 0.5000000000000000	0.777871
Zr	0.5000000000000000 0.5000000000000000 0.0000000000000000	2.472738
F	0.5000000000000000 0.5000000000000000 0.7462143195924957	-0.618372
F	0.5000000000000000 0.5000000000000000 0.2537856804075042	-0.618372
F	0.3723525218143272 0.3723525218143272 0.0000000000000000	-0.674401
F	0.6276474781856728 0.6276474781856728 0.0000000000000000	-0.674399
F	0.6276474781856728 0.3723525218143272 0.0000000000000000	-0.674400
F	0.3723525218143272 0.6276474781856728 0.0000000000000000	-0.674400
N	0.3142562954826639 0.5000000000000000 0.5000000000000000	-0.241068
N	0.6857437265173381 0.5000000000000000 0.5000000000000000	-0.241086
N	0.5000000000000000 0.3142562954826639 0.5000000000000000	-0.241068
N	0.5000000000000000 0.6857437265173381 0.5000000000000000	-0.241086
	  	
