#======================================================================

# CRYSTAL DATA

#----------------------------------------------------------------------

data_VESTA_phase_1


_pd_phase_name                         ZrFSIX_13_Ni_i
_cell_length_a                         15.29599
_cell_length_b                         15.29207
_cell_length_c                         8.11843
_cell_angle_alpha                      90.14452
_cell_angle_beta                       89.71799
_cell_angle_gamma                      89.88221
_symmetry_space_group_name_H-M         P 1
_symmetry_Int_Tables_number            1

loop_
_symmetry_equiv_pos_as_xyz
   x, y, z

loop_
   _atom_site_label
   _atom_site_fract_x
   _atom_site_fract_y
   _atom_site_fract_z
   _atom_site_charge
C	0.5403797948275034 0.6839248576158508 0.8742199451409871	0.108262
C	0.5431993541392820 0.7749024519835681 0.8717403072874583	-0.145014
C	0.4632541771488773 0.3185718043794108 0.8814139711373281	0.108305
C	0.4604829476959600 0.2276508122291363 0.8802620591373851	-0.138189
C	0.8179509015502114 0.9727858627788820 0.3693086654480484	0.112301
C	0.7272118444279140 0.9707894005572056 0.3646790563248939	-0.134018
C	0.3183509359608361 0.5414013938881826 0.8722974119609627	0.106846
C	0.2274087585308994 0.5448733925282870 0.8695452063029214	-0.144370
C	0.1845666104597714 0.9711281026443350 0.3605295378792758	0.105982
C	0.2754299558624455 0.9704102850660250 0.3568189329165300	-0.132901
C	0.6834167877413689 0.4628031855808954 0.8867811138084745	0.108930
C	0.7742686975989250 0.4603514183799350 0.8843968774269125	-0.138518
C	0.4550577399949466 0.6842708744042495 0.1115220486143036	0.109205
C	0.4522727682480872 0.7751392527094061 0.1150884170597975	-0.135014
C	0.5398429028443402 0.3204941683571430 0.1278328764139267	0.106747
C	0.5420364925712668 0.2295157546495687 0.1334967908602049	-0.145509
C	0.1821477241655126 0.0207645053412464 0.6308714467731503	0.112165
C	0.2728093785668707 0.0220828421500092 0.6380923719203296	-0.133828
C	0.6814012662661273 0.5435656366914813 0.1293361702800160	0.109809
C	0.7723828469695376 0.5464531042777273 0.1334807324961773	-0.145338
C	0.8171900761417049 0.0294633319428473 0.6347772486989802	0.104743
C	0.7263598435677745 0.0299215411700925 0.6408147751285855	-0.132711
C	0.3171541458920442 0.4585226426325627 0.1115854030880862	0.109428
C	0.2262683979040111 0.4564285542388503 0.1148781306813163	-0.138862
C	0.9654837219135933 0.8158768251479851 0.6298380046089898	0.110843
C	0.9649668555409302 0.7250282638741962 0.6367365998733948	-0.131818
C	0.9830515511048014 0.1813155003398221 0.6365472966636945	0.106225
C	0.9802781648080084 0.2720459170041899 0.6406669866255982	-0.132532
C	0.0216025884492349 0.8145020781468677 0.3637393736689143	0.106509
C	0.0237040409164698 0.7237439423136086 0.3600425475954962	-0.133288
C	0.0314004840733253 0.1804170122711987 0.3651183795179131	0.112685
C	0.0308298487078815 0.2712417865363801 0.3583594158933956	-0.133271
C	0.0040856703539422 0.3179573833461585 0.4985432625595991	0.043786
C	0.0012194408319927 0.4135879738317462 0.4980266975810922	0.254734
C	0.4980308402663956 0.8214217370746054 0.9939321449084468	0.057951
C	0.4989903301109087 0.9178420526973112 0.9987314678154980	0.246826
C	0.9952474611007162 0.6779922343203892 0.4994550828689930	0.039141
C	0.9971456977957879 0.5822137039644955 0.4996896691167110	0.248415
C	0.5010922793412580 0.1822075447573174 0.0082128945195516	0.058039
C	0.5004215894699281 0.0856995908793611 0.0088739478785308	0.249856
C	0.6804118947265628 0.9997661500736108 0.5032222506086315	0.041615
C	0.5846982424180874 0.9977098391363505 0.5041105281849662	0.246485
C	0.1804467141550749 0.5012220753709344 0.9924050478724502	0.058541
C	0.0840210940252425 0.5021818660280122 0.9951851177177043	0.247501
C	0.3204668635614350 0.9961747014581552 0.4985306114077687	0.042410
C	0.4161048583141594 0.9960778913058504 0.5014589383450775	0.256006
C	0.8197052432670773 0.5036267911483728 0.0094230715505244	0.058829
C	0.9161876205663659 0.5034628230593404 0.0067643245977740	0.247899
H	0.5725075660005642 0.6456054213904800 0.7778181181865074	0.099066
H	0.5792682319774894 0.8083589245869182 0.7745457188694190	0.126674
H	0.4345932166077409 0.3561417631424758 0.7810504398853115	0.099733
H	0.4293812627644714 0.1925118988006968 0.7795293752790571	0.121176
H	0.8560408270508250 0.9502444584844320 0.2636999062461364	0.092431
H	0.6937873130447353 0.9474518527062515 0.2549113480111703	0.123150
H	0.3568352540986588 0.5723492818210336 0.7751191072495287	0.099823
H	0.1942990977429865 0.5802502366229372 0.7715513270878455	0.127234
H	0.1480848646243934 0.9519766953353974 0.2513183523089396	0.091352
H	0.3099009800147690 0.9512994002877120 0.2445567700426233	0.118507
H	0.6457249681637871 0.4324261363652151 0.7884792455816113	0.099517
H	0.8093964889312332 0.4277017160134007 0.7846164332241580	0.119949
H	0.4230096853429279 0.6459310867928724 0.2073513226866238	0.099988
H	0.4179889836064030 0.8095995573744685 0.2136731709036727	0.119172
H	0.5689024568647439 0.3593299361472092 0.2263428566197231	0.099776
H	0.5741014702093643 0.1966761921987900 0.2357753167420142	0.126405
H	0.1434378173808693 0.0409138545673302 0.7373006225603145	0.092152
H	0.3053897553230109 0.0419449338557533 0.7510802672469176	0.121606
H	0.6425624877322715 0.5740189715871525 0.2270479373415838	0.098525
H	0.8051495088238829 0.5806023755896417 0.2336122678401768	0.126962
H	0.8543734210385713 0.0514838946127109 0.7411934485495875	0.091645
H	0.6925174556612509 0.0521718255805267 0.7516447485338141	0.122305
H	0.3551226785080715 0.4271720274255167 0.2083694490624856	0.099005
H	0.1914231533913027 0.4232136741127329 0.2138159718950080	0.119754
H	0.9426592571836091 0.8542960151212297 0.7348180596235611	0.094600
H	0.9425257158645380 0.6919399084029535 0.7478419824500503	0.122138
H	0.9653584610345161 0.1441508372923553 0.7458787019568132	0.088037
H	0.9606025445124633 0.3059409254279006 0.7530475856295422	0.121224
H	0.0427408464043892 0.8514231779253989 0.2561972028842785	0.089055
H	0.0466149350635587 0.6896411886450124 0.2500847335305184	0.121543
H	0.0517677477500304 0.1422586064763290 0.2580735257572914	0.094458
H	0.0494095662027296 0.3045675838397819 0.2450187198770048	0.120864
N	0.9467429217527400 0.5397481440022812 0.6110143954962651	-0.135296
N	0.4216494986986105 0.0458089013633149 0.0083453158283058	-0.146377
N	0.5420706682930522 0.0475423526954356 0.6168288655395883	-0.134610
N	0.9564495973762929 0.4247042024444511 0.0023048702895028	-0.144941
N	0.0489760859856321 0.5420820605176034 0.3867329237814449	-0.133747
N	0.5784298600617938 0.0441310533688594 0.0107907703214971	-0.145992
N	0.9573159908123344 0.5815635119229634 0.0046692532347306	-0.145201
N	0.5448157391166810 0.9449019223238990 0.3936284369200281	-0.132718
N	0.0515639762526148 0.4561028878242257 0.3868258702109754	-0.131418
N	0.5777367549150607 0.9577524265286212 0.0011963982868441	-0.144463
N	0.4587836144878520 0.9438980902618784 0.3927587888396795	-0.130909
N	0.0436835565931501 0.5808708852376397 0.9946318142549430	-0.144161
N	0.9483182738647170 0.4536587508085304 0.6090763984287350	-0.131552
N	0.4209876410658693 0.9593247769893136 0.0068741613546634	-0.142621
N	0.0429003573036521 0.4240491915133984 0.9998146404341461	-0.144914
N	0.4560467094856567 0.0469382797083519 0.6149172240678145	-0.135026
N	0.0070646729774807 0.1359024478130429 0.5011074769816699	-0.229036
N	0.4979519620485918 0.6393101254586592 0.9930512486299172	-0.237490
N	0.9939527955355486 0.8601605012901903 0.4964343198767497	-0.228089
N	0.5015986228937520 0.3642848789041808 0.0035022160899838	-0.239717
N	0.8625191000756915 0.0015392729549106 0.5017373299640238	-0.229053
N	0.3625163574087322 0.4997860988607027 0.9921547468807708	-0.238239
N	0.1383894183679842 0.9953769751764056 0.4950978951339887	-0.228979
N	0.6376058035441876 0.5031063756857327 0.0074016080001931	-0.238558
Ni	0.0003781736529131 0.9980092017236400 0.4986843074951084	0.773026
Ni	0.5000513356553430 0.5018136077424129 0.9991228619443185	0.779032
Zr	0.9995873387311989 0.9970065959347703 0.9987543292851521	2.458171
Zr	0.4993865785859597 0.5035252262464972 0.4990223315342589	2.477888
F	0.9973275532651689 0.0013747199402204 0.2539262783996381	-0.615212
F	0.5059595450088477 0.4992233022753473 0.7540656714162057	-0.622365
F	0.0023617363708650 0.9934588031613852 0.7435430599338325	-0.614896
F	0.4931267741190108 0.5061347374255436 0.2440240884378688	-0.622780
F	0.0940691681004927 0.0903845060777144 0.9956462299465180	-0.661215
F	0.5913668433427605 0.5999205620565605 0.4953875166008931	-0.676709
F	0.9052567636508764 0.9036853914502192 0.0010453464500898	-0.661703
F	0.4076541884018337 0.4071927138319179 0.5052255228447404	-0.679202
F	0.9067243826370843 0.0919829595732507 0.9808544453224401	-0.658409
F	0.4034453374581667 0.5958845696732600 0.5135384433561963	-0.676908
F	0.0932455742005215 0.9028406332999301 0.0169297760464934	-0.658046
F	0.5960733690857551 0.4118931851169389 0.4825854467097722	-0.677230
	  	
