#======================================================================

# CRYSTAL DATA

#----------------------------------------------------------------------

data_VESTA_phase_1


_pd_phase_name                         ZrFSIX_18_Fe
_cell_length_a                         14.50022
_cell_length_b                         13.94515
_cell_length_c                         8.29217
_cell_angle_alpha                      90
_cell_angle_beta                       97.18648
_cell_angle_gamma                      90
_symmetry_space_group_name_H-M         P 1
_symmetry_Int_Tables_number            1

loop_
_symmetry_equiv_pos_as_xyz
   x, y, z

loop_
   _atom_site_label
   _atom_site_fract_x
   _atom_site_fract_y
   _atom_site_fract_z
   _atom_site_charge
F	0.4065867746316788 0.3579484324852140 0.4935525209419198	-0.656858
F	0.5202795252650686 0.4818255210462478 0.7522901527602575	-0.600260
F	0.3930852187702436 0.5606695124682712 0.5160652413368608	-0.634089
F	0.9065868086316750 0.8579483634852116 0.4935525209419198	-0.656862
F	0.0202795512650637 0.9818254860462483 0.7522901527602575	-0.600279
F	0.8930852527702465 0.0606694784682750 0.5160652413368608	-0.634098
F	0.5934131883683212 0.3579484324852140 0.5064474790580806	-0.656858
F	0.4797204717349348 0.4818255210462478 0.2477098472397424	-0.600260
F	0.6069147772297560 0.5606695124682712 0.4839347596631436	-0.634089
F	0.0934132093683197 0.8579483634852116 0.5064474790580806	-0.656862
F	0.9797203367349342 0.9818254860462483 0.2477098472397424	-0.600279
F	0.1069147522297575 0.0606694784682750 0.4839347596631437	-0.634098
C	0.6794851903272952 0.1595942277497361 0.6666610697655203	-0.426575
C	0.7539037487336573 0.1559600708180877 0.8072815492598707	0.211238
C	0.7603195839860108 0.1992405691404756 0.9607586588215301	-0.152673
C	0.6909952388990371 0.2618079445384174 0.0200740982369669	-0.140355
C	0.6743134342459818 0.3599409108971635 0.9803588400680918	0.217757
C	0.7281156648928833 0.4233810563508070 0.8815421942346938	-0.426487
C	0.8910434008034521 0.1998406880690513 0.2078103253896069	-0.438404
C	0.8483504462799155 0.1719372191890855 0.0416753132107597	0.221696
C	0.6260602662270476 0.2377562638546908 0.1249823031302400	0.209525
C	0.6075874589074552 0.1463337329030447 0.2078211574948110	-0.426277
C	0.1794852403272920 0.6595942797497329 0.6666610697655203	-0.426576
C	0.2539037827336602 0.6559600538180826 0.8072815492598707	0.211244
C	0.2603195499860084 0.6992405351404726 0.9607586588215301	-0.152707
C	0.1909952388990364 0.7618079615384152 0.0200740982369669	-0.140349
C	0.1743134172459767 0.8599409448971665 0.9803588400680918	0.217756
C	0.2281156808928778 0.9233810213508078 0.8815421942346938	-0.426487
C	0.3910432998034478 0.6998406020690519 0.2078103253896069	-0.438404
C	0.3483505142799143 0.6719372191890854 0.0416753132107597	0.221711
C	0.1260602412270498 0.7377561778546909 0.1249823031302400	0.209518
C	0.1075875429074550 0.6463338019030471 0.2078211574948110	-0.426219
C	0.3205148066727082 0.1595942277497361 0.3333389312344834	-0.426575
C	0.2460962442663391 0.1559600708180877 0.1927183707401290	0.211238
C	0.2396804450139878 0.1992405691404756 0.0392413171784753	-0.152673
C	0.3090047571009631 0.2618079445384174 0.9799258927630353	-0.140354
C	0.3256866317540240 0.3599409108971635 0.0196412109319090	0.217757
C	0.2718843501071213 0.4233810563508070 0.1184578217653074	-0.426488
C	0.1089566821965509 0.1998406880690513 0.7921897226103971	-0.438404
C	0.1516495327200859 0.1719372191890855 0.9583246747892396	0.221696
C	0.3739397647729508 0.2377562638546908 0.8750177208697546	0.209523
C	0.3924124670925457 0.1463337329030447 0.7921787635051942	-0.426225
C	0.8205148066727082 0.6595942797497329 0.3333389312344834	-0.426575
C	0.7460962442663386 0.6559600538180826 0.1927183707401290	0.211239
C	0.7396804110139923 0.6992405351404726 0.0392413171784753	-0.152674
C	0.8090047571009625 0.7618079615384152 0.9799258927630353	-0.140355
C	0.8256865647540217 0.8599409448971665 0.0196412109319090	0.217757
C	0.7718843331071166 0.9233810213508078 0.1184578217653074	-0.426487
C	0.6089565981965513 0.6998406020690519 0.7921897226103971	-0.438407
C	0.6516495497200842 0.6719372191890854 0.9583246747892396	0.221695
C	0.8739397307729486 0.7377561778546909 0.8750177208697546	0.209521
C	0.8924125340925477 0.6463338019030471 0.7921787635051942	-0.426271
H	0.7089239367942417 0.1714573679107013 0.5527126058923736	0.151693
H	0.6313400954097240 0.2186706232823978 0.6804246372737931	0.147856
H	0.6401242897951537 0.0919086977198923 0.6539620117288316	0.130658
H	0.6823438674889838 0.4674364336455122 0.7963889824575313	0.133717
H	0.7725006368453265 0.3800154147191238 0.8125197958505798	0.141062
H	0.7726652711722289 0.4723932857595536 0.9610577028285655	0.129602
H	0.8563694214821721 0.0758556146272636 0.7022885062118318	0.280910
H	0.8771088266343458 0.1469372027034981 0.2998529164629927	0.143999
H	0.8623116750071653 0.2687423968450049 0.2417064453718439	0.138027
H	0.9668273606145763 0.2063293582359604 0.2133858378640580	0.140182
H	0.5857587866567123 0.1602848929126485 0.3277072124939574	0.147626
H	0.6703049777447260 0.1017446316898207 0.2235667389211918	0.152303
H	0.5520745538721953 0.1046785334373270 0.1369169126521804	0.131324
H	0.5240475704828752 0.3282221891232668 0.2101161035669889	0.264042
H	0.2089239877942425 0.6714572649107028 0.5527126058923736	0.151693
H	0.1313401794097235 0.7186705542823958 0.6804246372737931	0.147856
H	0.1401243397951508 0.5919086377198872 0.6539620117288316	0.130658
H	0.1823438844889819 0.9674363656455056 0.7963889824575313	0.133718
H	0.2725006708453296 0.8800154487191267 0.8125197958505799	0.141062
H	0.2726653041722277 0.9723932857595539 0.9610577028285655	0.129602
H	0.3563693874821762 0.5758556576272633 0.7022885062118318	0.280917
H	0.3771088936343479 0.6469371687034956 0.2998529164629927	0.144005
H	0.3623116070071671 0.7687424318450043 0.2417064453718439	0.138026
H	0.4668274276145711 0.7063294092359543 0.2133858378640580	0.140182
H	0.0857587786567120 0.6602849099126461 0.3277072124939574	0.147609
H	0.1703049437447225 0.6017445886898213 0.2235667389211918	0.152308
H	0.0520745898721978 0.6046784814373293 0.1369169126521804	0.131283
H	0.0240475554828776 0.8282221891232669 0.2101161035669889	0.264043
H	0.2910759942057633 0.1714573679107013 0.4472874261076223	0.151694
H	0.3686598035902712 0.2186706232823978 0.3195754277262091	0.147857
H	0.3598756392048507 0.0919086977198923 0.3460379882711681	0.130657
H	0.3176561275110190 0.4674364336455122 0.2036109855424724	0.133718
H	0.2274993581546695 0.3800154147191238 0.1874801721494177	0.141062
H	0.2273347248277781 0.4723932857595536 0.0389422701714352	0.129602
H	0.1436305795178242 0.0758556146272636 0.2977113987881646	0.280910
H	0.1228910963656514 0.1469372027034981 0.7001471155370096	0.144000
H	0.1376883889928327 0.2687423968450049 0.7582935546281564	0.138027
H	0.0331725683854286 0.2063293582359604 0.7866141941359375	0.140184
H	0.4142412433432899 0.1602848929126485 0.6722927875060428	0.147610
H	0.3296950842552797 0.1017446316898207 0.7764332130788038	0.152309
H	0.4479254111278059 0.1046785334373270 0.8630831273478228	0.131285
H	0.4759523905171248 0.3282221891232668 0.7898838494330109	0.264042
H	0.7910760612057581 0.6714572649107028 0.4472874261076223	0.151693
H	0.8686599045902760 0.7186705542823958 0.3195754277262091	0.147856
H	0.8598756392048511 0.5919086377198872 0.3460379882711681	0.130658
H	0.8176561275110193 0.9674363656455056 0.2036109855424724	0.133719
H	0.7274993581546695 0.8800154487191267 0.1874801721494177	0.141062
H	0.7273347248277778 0.9723932857595539 0.0389422701714352	0.129602
H	0.6436305705178272 0.5758556576272633 0.2977113987881646	0.280917
H	0.6228912053656498 0.6469371687034956 0.7001471155370096	0.144006
H	0.6376883219928309 0.7687424318450043 0.7582935546281564	0.138027
H	0.5331726043854244 0.7063294092359543 0.7866141941359375	0.140184
H	0.9142411763432882 0.6602849099126461 0.6722927875060428	0.147625
H	0.8296950172552772 0.6017445886898213 0.7764332130788038	0.152303
H	0.9479254111278054 0.6046784814373293 0.8630831273478228	0.131321
H	0.9759523565171294 0.8282221891232669 0.7898838494330109	0.264044
N	0.8330415498039255 0.1055148197234550 0.8039543112135817	-0.148157
N	0.6028921624368996 0.3928151719439422 0.0537897471836510	-0.265761
N	0.8917945153905470 0.1144190416451595 0.9443747399600035	-0.273264
N	0.5757241647707528 0.3179142748877506 0.1401608868870991	-0.144200
N	0.3330415498039259 0.6055147427234588 0.8039543112135817	-0.148166
N	0.1028922294369018 0.8928151719439417 0.0537897471836510	-0.265756
N	0.3917945493905499 0.6144190926451601 0.9443747399600035	-0.273247
N	0.0757241567707522 0.8179142398877514 0.1401608868870991	-0.144200
N	0.1669584321960730 0.1055148197234550 0.1960457367864153	-0.148157
N	0.3971077315630990 0.3928151719439422 0.9462102288163475	-0.265761
N	0.1082054546094505 0.1144190416451595 0.0556252400399947	-0.273264
N	0.4242758322292501 0.3179142748877506 0.8598391291129021	-0.144202
N	0.6669584491960708 0.6055147427234588 0.1960457367864152	-0.148160
N	0.8971078325631036 0.8928151719439417 0.9462102288163475	-0.265757
N	0.6082054796094561 0.6144190926451601 0.0556252400399947	-0.273261
N	0.9242758662292462 0.8179142398877514 0.8598391291129021	-0.144198
Zr	0.4999999979999998 0.4655694285226639 0.5000000000000000	2.438347
Zr	-0.0000000000000000 0.9655694285226643 0.5000000000000000	2.438410
Fe	0.5000000000000000 0.5099985438322033 0.0000000000000000	0.841915
Fe	-0.0000000000000000 0.0099985508322076 0.0000000000000000	0.841925
	  	
