#======================================================================

# CRYSTAL DATA

#----------------------------------------------------------------------

data_VESTA_phase_1


_pd_phase_name                         ZrFSIX_4_Zn_i
_cell_length_a                         23.82010
_cell_length_b                         20.67476
_cell_length_c                         9.46166
_cell_angle_alpha                      90
_cell_angle_beta                       90
_cell_angle_gamma                      90
_symmetry_space_group_name_H-M         P 1
_symmetry_Int_Tables_number            1

loop_
_symmetry_equiv_pos_as_xyz
   x, y, z

loop_
   _atom_site_label
   _atom_site_fract_x
   _atom_site_fract_y
   _atom_site_fract_z
   _atom_site_charge
C	0.4140944706810780 0.5966227778564374 0.6290643362364092	0.107091
C	0.3709864971335395 0.5515161716567706 0.6267266991235900	-0.169495
C	0.2767002557703879 0.4494847774594268 0.6262286339012020	-0.115738
C	0.2316587471994534 0.4069817052715172 0.6248850915709895	-0.112705
C	0.1317024279219705 0.3212903296547008 0.6236157634254881	-0.166925
C	0.0854595445068703 0.2805258418577011 0.6274015013581957	0.098975
C	0.9140945536810742 0.0966227888564417 0.6290643362364092	0.106995
C	0.8709864551335437 0.0515161136567732 0.6267266991235900	-0.169493
C	0.7767002767703930 0.9494848244594271 0.6262286339012020	-0.115738
C	0.7316587271994514 0.9069817512715138 0.6248850915709895	-0.112704
C	0.6317024279219706 0.8212903766547009 0.6236157634254881	-0.166925
C	0.5854595295068649 0.7805259348576977 0.6274015013581957	0.098975
C	0.5859055293189220 0.4033771761435586 0.1290643442364101	0.107091
C	0.6290135448664563 0.4484838743432329 0.1267267141235878	-0.169495
C	0.7232997232296070 0.5505151755405729 0.1262286419012028	-0.115737
C	0.7683412728005486 0.5930182947284829 0.1248850995709899	-0.112705
C	0.8682975720780294 0.6787096703452994 0.1236157704254922	-0.166924
C	0.9145404704931351 0.7194741121423026 0.1274015163581937	0.098976
C	0.0859055403189265 0.9033772691435630 0.1290643442364100	0.107091
C	0.1290135028664602 0.9484837823432327 0.1267267141235878	-0.169495
C	0.2232997652296103 0.0505152225405733 0.1262286419012028	-0.115737
C	0.2683412318005486 0.0930182717284845 0.1248850995709899	-0.112705
C	0.3682976140780332 0.1787096813452967 0.1236157704254922	-0.166924
C	0.4145404704931345 0.2194741821423010 0.1274015163581937	0.098976
C	0.5859055293189220 0.5966227778564374 0.8709356327635918	0.107091
C	0.6290135448664563 0.5515161716567706 0.8732732698764110	-0.169495
C	0.7232997232296070 0.4494847774594268 0.8737713970987970	-0.115738
C	0.7683412728005486 0.4069817052715172 0.8751149394290095	-0.112705
C	0.8682975720780294 0.3212903296547008 0.8763842675745109	-0.166919
C	0.9145404704931351 0.2805258418577012 0.8725985296418033	0.098971
C	0.0859055403189265 0.0966227888564417 0.8709356327635918	0.107091
C	0.1290135028664602 0.0515161136567732 0.8732732698764109	-0.169494
C	0.2232997652296103 0.9494848244594271 0.8737713970987970	-0.115738
C	0.2683412318005486 0.9069817512715138 0.8751149394290095	-0.112705
C	0.3682976140780332 0.8212903766547009 0.8763842675745109	-0.166920
C	0.4145404704931345 0.7805259348576977 0.8725985296418033	0.098971
C	0.4140944706810780 0.4033771761435586 0.3709356637635907	0.107091
C	0.3709864971335395 0.4484838743432329 0.3732732698764110	-0.169495
C	0.2767002557703879 0.5505151755405729 0.3737713660987978	-0.115737
C	0.2316587471994534 0.5930182947284829 0.3751148774290115	-0.112705
C	0.1317024279219705 0.6787096703452994 0.3763842055745056	-0.166925
C	0.0854595445068703 0.7194741121423026 0.3725984676418050	0.098976
C	0.9140945536810742 0.9033772691435630 0.3709356637635907	0.106996
C	0.8709864551335437 0.9484837823432327 0.3732732698764110	-0.169494
C	0.7767002767703930 0.0505152225405733 0.3737713660987978	-0.115737
C	0.7316587271994514 0.0930182717284845 0.3751148774290115	-0.112705
C	0.6317024279219706 0.1787096813452967 0.3763842055745056	-0.166924
C	0.5854595295068649 0.2194741821423010 0.3725984676418050	0.098976
C	0.5859055293189220 0.4033771761435587 0.3709356637635907	0.107093
C	0.6290135448664563 0.4484838743432329 0.3732732698764110	-0.169496
C	0.7232997232296070 0.5505151755405729 0.3737713660987978	-0.115737
C	0.7683412728005486 0.5930182947284829 0.3751148774290115	-0.112705
C	0.8682975720780294 0.6787096703452994 0.3763842055745056	-0.166924
C	0.9145404704931351 0.7194741121423026 0.3725984676418050	0.098978
C	0.0859055403189265 0.9033772691435631 0.3709356637635907	0.107092
C	0.1290135028664602 0.9484837823432327 0.3732732698764110	-0.169496
C	0.2232997652296103 0.0505152225405733 0.3737713660987978	-0.115738
C	0.2683412318005486 0.0930182717284845 0.3751148774290115	-0.112705
C	0.3682976140780332 0.1787096813452967 0.3763842055745056	-0.166925
C	0.4145404704931345 0.2194741821423010 0.3725984676418050	0.098978
C	0.4140944706810780 0.5966227778564372 0.8709356327635918	0.107092
C	0.3709864971335395 0.5515161716567706 0.8732732698764107	-0.169495
C	0.2767002557703879 0.4494847774594268 0.8737713970987970	-0.115738
C	0.2316587471994534 0.4069817052715172 0.8751149394290095	-0.112705
C	0.1317024279219705 0.3212903296547008 0.8763842675745109	-0.166920
C	0.0854595445068703 0.2805258418577011 0.8725985296418033	0.098973
C	0.9140945536810742 0.0966227888564417 0.8709356327635918	0.106997
C	0.8709864551335437 0.0515161136567732 0.8732732698764109	-0.169493
C	0.7767002767703930 0.9494848244594271 0.8737713970987970	-0.115738
C	0.7316587271994514 0.9069817512715138 0.8751149394290095	-0.112705
C	0.6317024279219706 0.8212903766547009 0.8763842675745109	-0.166920
C	0.5854595295068649 0.7805259348576977 0.8725985296418033	0.098973
C	0.4140944706810780 0.4033771761435586 0.1290643442364101	0.107093
C	0.3709864971335395 0.4484838743432329 0.1267267141235878	-0.169495
C	0.2767002557703879 0.5505151755405729 0.1262286419012028	-0.115737
C	0.2316587471994534 0.5930182947284829 0.1248850995709899	-0.112705
C	0.1317024279219705 0.6787096703452994 0.1236157704254922	-0.166925
C	0.0854595445068703 0.7194741121423026 0.1274015163581937	0.098978
C	0.9140945536810742 0.9033772691435630 0.1290643442364101	0.106997
C	0.8709864551335437 0.9484837823432327 0.1267267141235878	-0.169494
C	0.7767002767703930 0.0505152225405733 0.1262286419012028	-0.115737
C	0.7316587271994514 0.0930182717284845 0.1248850995709899	-0.112705
C	0.6317024279219706 0.1787096813452967 0.1236157704254922	-0.166925
C	0.5854595295068649 0.2194741821423010 0.1274015163581937	0.098978
C	0.5859055293189220 0.5966227778564374 0.6290643362364092	0.107093
C	0.6290135448664563 0.5515161716567706 0.6267266991235901	-0.169495
C	0.7232997232296070 0.4494847774594268 0.6262286339012020	-0.115738
C	0.7683412728005486 0.4069817052715172 0.6248850915709895	-0.112705
C	0.8682975720780294 0.3212903296547008 0.6236157634254881	-0.166925
C	0.9145404704931351 0.2805258418577011 0.6274015013581957	0.098977
C	0.0859055403189265 0.0966227888564417 0.6290643362364092	0.107093
C	0.1290135028664602 0.0515161136567732 0.6267266991235900	-0.169494
C	0.2232997652296103 0.9494848244594271 0.6262286339012020	-0.115738
C	0.2683412318005486 0.9069817512715138 0.6248850915709895	-0.112705
C	0.3682976140780332 0.8212903766547009 0.6236157634254881	-0.166925
C	0.4145404704931345 0.7805259348576977 0.6274015013581957	0.098977
C	0.3470254004993116 0.5249028366333021 0.7500000149999977	0.121075
C	0.3008186294676497 0.4752032270587075 0.7500000149999977	0.072744
C	0.2064366355647955 0.3853847987332987 0.7500000149999977	0.066381
C	0.1568156755544359 0.3425779328486950 0.7500000149999977	0.104274
C	0.8470253584993163 0.0249028196333041 0.7500000149999977	0.121074
C	0.8008186914676475 0.9752031800587071 0.7500000149999977	0.072744
C	0.7064366355647959 0.8853848217332971 0.7500000149999977	0.066381
C	0.6568156755544359 0.8425778638486929 0.7500000149999977	0.104274
C	0.6529745995006874 0.4750972093666948 0.2500000000000000	0.121075
C	0.6991813085323525 0.5247967729412926 0.2500000000000000	0.072743
C	0.7935633644352041 0.6146152252667032 0.2500000000000000	0.066381
C	0.8431843654455711 0.6574220441513066 0.2500000000000000	0.104276
C	0.1529746105006856 0.9750972563666950 0.2500000000000000	0.121076
C	0.1991813915323486 0.0247967759412891 0.2500000000000000	0.072743
C	0.2935633644352044 0.1146151782667030 0.2500000000000000	0.066381
C	0.3431843244455642 0.1574220781513096 0.2500000000000000	0.104275
C	0.6529745995006874 0.5249028366333021 0.7500000149999977	0.121075
C	0.6991813085323525 0.4752032270587075 0.7500000149999977	0.072743
C	0.7935633644352041 0.3853847987332987 0.7500000149999977	0.066381
C	0.8431843654455711 0.3425779328486950 0.7500000149999977	0.104274
C	0.1529746105006856 0.0249028196333041 0.7500000149999977	0.121075
C	0.1991813915323486 0.9752031800587071 0.7500000149999977	0.072744
C	0.2935633644352044 0.8853848217332971 0.7500000149999977	0.066381
C	0.3431843244455642 0.8425778638486929 0.7500000149999977	0.104274
C	0.3470254004993116 0.4750972093666948 0.2500000000000000	0.121075
C	0.3008186294676497 0.5247967729412926 0.2500000000000000	0.072743
C	0.2064366355647955 0.6146152252667032 0.2500000000000000	0.066381
C	0.1568156755544359 0.6574220441513066 0.2500000000000000	0.104275
C	0.8470253584993163 0.9750972563666950 0.2500000000000000	0.121074
C	0.8008186914676475 0.0247967759412891 0.2500000000000000	0.072744
C	0.7064366355647959 0.1146151782667030 0.2500000000000000	0.066381
C	0.6568156755544359 0.1574220781513096 0.2500000000000000	0.104275
H	0.4315989444603559 0.6153017372556215 0.5305751329078261	0.098847
H	0.3580732173368380 0.5388984173138210 0.5216947769656680	0.106775
H	0.2924359941737269 0.4614929478193842 0.5233478127483437	0.086113
H	0.2164227364087898 0.3908400263927281 0.5222193656179657	0.104190
H	0.1474645349068494 0.3355615485346854 0.5202457103467544	0.121183
H	0.0659676644096015 0.2630963027911166 0.5301498820271272	0.101933
H	0.9315989024603522 0.1153017722556209 0.5305751329078261	0.098851
H	0.8580731763368379 0.0388983533138153 0.5216947769656680	0.106774
H	0.7924359731737289 0.9614929478193840 0.5233478127483437	0.086113
H	0.7164226944087864 0.8908399573927337 0.5222193656179657	0.104190
H	0.6474645249068486 0.8355615485346854 0.5202457103467544	0.121183
H	0.5659676954096009 0.7630962797911178 0.5301498820271272	0.101932
H	0.5684010555396444 0.3846982627443786 0.0305751949078236	0.098847
H	0.6419267826631623 0.4611016296861797 0.0216947769656677	0.106775
H	0.7075640268262711 0.5385070061806122 0.0233478747483422	0.086113
H	0.7835773055912136 0.6091599506072658 0.0222193046179639	0.104190
H	0.8525354750931514 0.6644384054653107 0.0202457103467543	0.121183
H	0.9340322635903993 0.7369037202088822 0.0301498510271281	0.101932
H	0.0684010615396447 0.8846982627443785 0.0305751949078237	0.098847
H	0.1419268236631618 0.9611016296861793 0.0216947769656677	0.106775
H	0.2075640268262713 0.0385070491806121 0.0233478747483422	0.086113
H	0.2835772635912103 0.1091599846072691 0.0222193046179639	0.104190
H	0.3525354750931515 0.1644384284653091 0.0202457103467543	0.121183
H	0.4340323045903997 0.2369036972088835 0.0301498510271281	0.101932
H	0.5684010555396444 0.6153017372556215 -0.0305751519078238	0.098847
H	0.6419267826631623 0.5388984173138210 -0.0216948039656736	0.106774
H	0.7075640268262711 0.4614929478193842 -0.0233478307483385	0.086113
H	0.7835773055912136 0.3908400263927281 -0.0222193586179611	0.104189
H	0.8525354750931514 0.3355615485346854 -0.0202457103467545	0.121183
H	0.9340322635903993 0.2630963027911166 -0.0301498890271313	0.101943
H	0.0684010615396447 0.1153017722556209 -0.0305751519078238	0.098847
H	0.1419268236631618 0.0388983533138153 -0.0216948039656736	0.106774
H	0.2075640268262713 0.9614929478193840 -0.0233478307483385	0.086113
H	0.2835772635912103 0.8908399573927337 -0.0222193586179611	0.104189
H	0.3525354750931515 0.8355615485346854 -0.0202457103467545	0.121183
H	0.4340323045903997 0.7630962797911178 -0.0301498890271313	0.101942
H	0.4315989444603559 0.3846982627443786 0.4694248360921755	0.098847
H	0.3580732173368380 0.4611016296861797 0.4783052540343313	0.106774
H	0.2924359941737269 0.5385070061806122 0.4766521562516567	0.086113
H	0.2164227364087898 0.6091599506072658 0.4777806033820355	0.104189
H	0.1474645349068494 0.6644384054653107 0.4797542586532466	0.121182
H	0.0659676644096015 0.7369037202088822 0.4698501179728727	0.101932
H	0.9315989024603522 0.8846982627443785 0.4694248360921755	0.098851
H	0.8580731763368379 0.9611016296861793 0.4783052540343313	0.106774
H	0.7924359731737289 0.0385070491806121 0.4766521562516567	0.086113
H	0.7164226944087864 0.1091599846072691 0.4777806033820355	0.104189
H	0.6474645249068486 0.1644384284653091 0.4797542586532466	0.121182
H	0.5659676954096009 0.2369036972088835 0.4698501179728727	0.101932
H	0.5684010555396444 0.3846982627443786 0.4694248360921755	0.098847
H	0.6419267826631623 0.4611016296861797 0.4783052540343313	0.106774
H	0.7075640268262711 0.5385070061806122 0.4766521562516567	0.086113
H	0.7835773055912136 0.6091599506072658 0.4777806033820355	0.104190
H	0.8525354750931514 0.6644384054653107 0.4797542586532466	0.121183
H	0.9340322635903993 0.7369037202088822 0.4698501179728727	0.101932
H	0.0684010615396447 0.8846982627443785 0.4694248360921755	0.098847
H	0.1419268236631618 0.9611016296861793 0.4783052540343313	0.106774
H	0.2075640268262713 0.0385070491806121 0.4766521562516567	0.086113
H	0.2835772635912103 0.1091599846072691 0.4777806033820355	0.104190
H	0.3525354750931515 0.1644384284653091 0.4797542586532466	0.121183
H	0.4340323045903997 0.2369036972088835 0.4698501179728727	0.101932
H	0.4315989444603559 0.6153017372556215 -0.0305751519078238	0.098847
H	0.3580732173368380 0.5388984173138210 -0.0216948039656736	0.106774
H	0.2924359941737269 0.4614929478193842 -0.0233478307483385	0.086113
H	0.2164227364087898 0.3908400263927281 -0.0222193586179611	0.104190
H	0.1474645349068494 0.3355615485346854 -0.0202457103467545	0.121183
H	0.0659676644096015 0.2630963027911166 -0.0301498890271313	0.101943
H	0.9315989024603522 0.1153017722556209 -0.0305751519078238	0.098852
H	0.8580731763368379 0.0388983533138153 -0.0216948039656736	0.106774
H	0.7924359731737289 0.9614929478193840 -0.0233478307483385	0.086113
H	0.7164226944087864 0.8908399573927337 -0.0222193586179611	0.104189
H	0.6474645249068486 0.8355615485346854 -0.0202457103467545	0.121183
H	0.5659676954096009 0.7630962797911178 -0.0301498890271313	0.101943
H	0.4315989444603559 0.3846982627443786 0.0305751949078237	0.098847
H	0.3580732173368380 0.4611016296861797 0.0216947769656677	0.106774
H	0.2924359941737269 0.5385070061806122 0.0233478747483422	0.086113
H	0.2164227364087898 0.6091599506072658 0.0222193046179639	0.104190
H	0.1474645349068494 0.6644384054653107 0.0202457103467543	0.121183
H	0.0659676644096015 0.7369037202088822 0.0301498510271281	0.101932
H	0.9315989024603522 0.8846982627443785 0.0305751949078237	0.098852
H	0.8580731763368379 0.9611016296861793 0.0216947769656677	0.106774
H	0.7924359731737289 0.0385070491806121 0.0233478747483422	0.086113
H	0.7164226944087864 0.1091599846072691 0.0222193046179639	0.104190
H	0.6474645249068486 0.1644384284653091 0.0202457103467543	0.121183
H	0.5659676954096009 0.2369036972088835 0.0301498510271281	0.101932
H	0.5684010555396444 0.6153017372556215 0.5305751329078261	0.098847
H	0.6419267826631623 0.5388984173138210 0.5216947769656679	0.106774
H	0.7075640268262711 0.4614929478193842 0.5233478127483437	0.086113
H	0.7835773055912136 0.3908400263927281 0.5222193656179657	0.104190
H	0.8525354750931514 0.3355615485346854 0.5202457103467544	0.121183
H	0.9340322635903993 0.2630963027911166 0.5301498820271272	0.101933
H	0.0684010615396447 0.1153017722556209 0.5305751329078261	0.098847
H	0.1419268236631618 0.0388983533138153 0.5216947769656679	0.106774
H	0.2075640268262713 0.9614929478193840 0.5233478127483437	0.086113
H	0.2835772635912103 0.8908399573927337 0.5222193656179657	0.104190
H	0.3525354750931515 0.8355615485346854 0.5202457103467544	0.121183
H	0.4340323045903997 0.7630962797911178 0.5301498820271272	0.101933
Zn	0.5000000000000000 0.6885336069543790 0.7500000149999977	0.747066
Zn	0.0000000000000000 0.1885336649543770 0.7500000149999977	0.747037
Zn	0.5000000000000000 0.3114663230456221 0.2500000000000000	0.747067
Zn	0.0000000000000000 0.8114663930456210 0.2500000000000000	0.747037
F	0.5000000000000000 0.6845574588209791 0.4763767549251111	-0.653369
F	0.0000000000000000 0.1845574938209786 0.4763767549251111	-0.653368
F	0.5000000000000000 0.3154425181790152 -0.0236232450748890	-0.653369
F	0.0000000000000000 0.8154425411790209 -0.0236232450748890	-0.653368
F	0.5000000000000000 0.6845574588209791 0.0236232310748877	-0.653370
F	0.0000000000000000 0.1845574938209786 0.0236232310748877	-0.653369
F	0.5000000000000000 0.3154425181790152 0.5236232150748864	-0.653369
F	0.0000000000000000 0.8154425411790209 0.5236232150748864	-0.653368
F	0.4390942813238127 0.7510295186010476 0.2500000000000000	-0.694126
F	0.5603696151448240 0.6120150337124848 0.2500000000000000	-0.684716
F	0.9390942813238127 0.2510295186010474 0.2500000000000000	-0.694126
F	0.0603696361448291 0.1120150337124846 0.2500000000000000	-0.684716
F	0.5609056776761875 0.2489704583989541 0.7500000149999977	-0.694125
F	0.4396303848551761 0.3879849662875154 0.7500000149999977	-0.684716
F	0.0609057296761917 0.7489704813989524 0.7500000149999977	-0.694125
F	0.9396303848551760 0.8879849662875152 0.7500000149999977	-0.684715
F	0.5609056776761875 0.7510295186010476 0.2500000000000000	-0.694126
F	0.4396303848551761 0.6120150337124848 0.2500000000000000	-0.684716
F	0.0609057296761917 0.2510295186010474 0.2500000000000000	-0.694126
F	0.9396303848551760 0.1120150337124846 0.2500000000000000	-0.684715
F	0.4390942813238127 0.2489704583989541 0.7500000149999977	-0.694125
F	0.5603696151448240 0.3879849662875154 0.7500000149999977	-0.684716
F	0.9390942813238127 0.7489704813989524 0.7500000149999977	-0.694125
F	0.0603696361448291 0.8879849662875152 0.7500000149999977	-0.684716
N	0.4362947405069028 0.6190440197766792 0.7500000149999977	-0.226576
N	0.5629041962061657 0.7599747229845506 0.7500000149999977	-0.237604
N	0.9362946995068955 0.1190440077766782 0.7500000149999977	-0.226375
N	0.0629041702061631 0.2599746999845451 0.7500000149999977	-0.237599
N	0.5637052594930976 0.3809559802233209 0.2500000000000000	-0.226576
N	0.4370958037938348 0.2400253000154548 0.2500000000000000	-0.237597
N	0.0637052594930973 0.8809559802233208 0.2500000000000000	-0.226577
N	0.9370958447938341 0.7400252770154493 0.2500000000000000	-0.237599
N	0.5637052594930976 0.6190440197766792 0.7500000149999977	-0.226576
N	0.4370958037938348 0.7599747229845507 0.7500000149999977	-0.237604
N	0.0637052594930973 0.1190440077766782 0.7500000149999977	-0.226577
N	0.9370958447938341 0.2599746999845451 0.7500000149999977	-0.237607
N	0.4362947405069028 0.3809559802233209 0.2500000000000000	-0.226576
N	0.5629041962061657 0.2400253000154548 0.2500000000000000	-0.237597
N	0.9362946995068955 0.8809559802233208 0.2500000000000000	-0.226375
N	0.0629041702061631 0.7400252770154493 0.2500000000000000	-0.237591
Zr	0.5000000000000000 0.6820749032743196 0.2500000000000000	2.475770
Zr	0.0000000000000000 0.1820749272743213 0.2500000000000000	2.475770
Zr	0.5000000000000000 0.3179250497256802 0.7500000149999977	2.475770
Zr	0.0000000000000000 0.8179250967256804 0.7500000149999977	2.475770
	  	
