#======================================================================

# CRYSTAL DATA

#----------------------------------------------------------------------

data_VESTA_phase_1


_pd_phase_name                         ZrFSIX_7_Cu
_cell_length_a                         18.90989
_cell_length_b                         18.90989
_cell_length_c                         8.60567
_cell_angle_alpha                      90
_cell_angle_beta                       90
_cell_angle_gamma                      90
_symmetry_space_group_name_H-M         P 1
_symmetry_Int_Tables_number            1

loop_
_symmetry_equiv_pos_as_xyz
   x, y, z

loop_
   _atom_site_label
   _atom_site_fract_x
   _atom_site_fract_y
   _atom_site_fract_z
   _atom_site_charge
C	0.6654768827298928 0.8692984143388583 0.6904325198858905	0.103205
C	0.6137191461306952 0.9214389736917438 0.6935829576693042	-0.168661
C	0.5814903922747470 0.8879724499259910 0.4339806661482850	-0.162903
C	0.6334416197170699 0.8363712230646134 0.4399007212685638	0.098537
C	0.8345231172701072 0.6307015856611417 0.6904325198858905	0.103205
C	0.8862809038693018 0.5785610773082569 0.6935829576693042	-0.168661
C	0.9185095067252553 0.6120276010740026 0.4339806661482850	-0.162903
C	0.8665583802829301 0.6636287769353866 0.4399007212685638	0.098536
C	0.6307015856611417 0.6654768827298928 0.6904325198858905	0.103205
C	0.5785610773082569 0.6137191461306952 0.6935829576693042	-0.168661
C	0.6120276010740026 0.5814903922747470 0.4339806661482850	-0.162902
C	0.6636287769353866 0.6334416197170699 0.4399007212685638	0.098537
C	0.8692984143388583 0.8345231172701072 0.6904325198858905	0.103206
C	0.9214389736917438 0.8862809038693018 0.6935829576693042	-0.168660
C	0.8879724499259910 0.9185095067252553 0.4339806661482850	-0.162903
C	0.8363712230646134 0.8665583802829301 0.4399007212685638	0.098537
C	0.3345230922701087 0.3692983643388546 0.3095675101141120	0.103216
C	0.3862808538693047 0.4214389736917439 0.3064170723306980	-0.168670
C	0.4185096077252532 0.3879723989259973 0.5660193338517148	-0.162902
C	0.3665583292829366 0.3363712230646133 0.5600993087314388	0.098535
C	0.1654769077298913 0.1307016226611480 0.3095675101141120	0.103216
C	0.1137191461306951 0.0785610263082561 0.3064170723306980	-0.168670
C	0.0814903732747418 0.1120276010740027 0.5660193338517148	-0.162902
C	0.1334416707170635 0.1636287649353857 0.5600993087314388	0.098535
C	0.3692983643388546 0.1654769077298913 0.3095675101141120	0.103217
C	0.4214389736917439 0.1137191461306951 0.3064170723306980	-0.168670
C	0.3879723989259973 0.0814903732747418 0.5660193338517148	-0.162902
C	0.3363712230646133 0.1334416707170635 0.5600993087314388	0.098535
C	0.1307016226611480 0.3345230922701087 0.3095675101141120	0.103217
C	0.0785610263082561 0.3862808538693047 0.3064170723306980	-0.168670
C	0.1120276010740027 0.4185096077252532 0.5660193338517148	-0.162902
C	0.1636287649353857 0.3665583292829366 0.5600993087314388	0.098535
C	0.4325032853593681 0.0705737990881881 0.4372286640985737	0.140745
C	0.4876066343490266 0.0167162705394104 0.4358167414403796	-0.119553
C	0.0674967146406321 0.4294261939118149 0.4372286640985737	0.140746
C	0.0123933336509708 0.4832836654605913 0.4358167414403796	-0.119558
C	0.4294261939118149 0.4325032853593681 0.4372286640985737	0.140745
C	0.4832836654605913 0.4876066343490266 0.4358167414403796	-0.119553
C	0.0705737990881881 0.0674967146406321 0.4372286640985737	0.140746
C	0.0167162705394104 0.0123933336509708 0.4358167414403796	-0.119558
C	0.5674967146406324 0.5705738060881855 0.5627713359014259	0.140744
C	0.5123934166509669 0.5167162845394044 0.5641832875596192	-0.119551
C	0.9325032353593705 0.9294261439118103 0.5627713359014259	0.140742
C	0.9876066343490266 0.9832837664605962 0.5641832875596192	-0.119541
C	0.5705738060881855 0.9325032353593705 0.5627713359014259	0.140744
C	0.5167162845394044 0.9876066343490266 0.5641832875596192	-0.119551
C	0.9294261439118103 0.5674967146406324 0.5627713359014259	0.140742
C	0.9832837664605962 0.5123934166509669 0.5641832875596192	-0.119541
H	0.6993119320712308 0.8596255238415875 0.7905693966735837	0.099866
H	0.6074048069364728 0.9535633507001715 0.7980082575477242	0.123278
H	0.5490624295813608 0.8921862994204179 0.3296824916309201	0.122285
H	0.6429779834230542 0.8015787016565739 0.3413522572634179	0.099657
H	0.8006880679287692 0.6403744761584125 0.7905693966735837	0.099866
H	0.8925951930635272 0.5464367002998292 0.7980082575477242	0.123279
H	0.9509376214186399 0.6078137515795827 0.3296824916309201	0.122285
H	0.8570220165769458 0.6984212983434261 0.3413522572634179	0.099657
H	0.6403744761584125 0.6993119320712308 0.7905693966735837	0.099866
H	0.5464367002998292 0.6074048069364728 0.7980082575477242	0.123278
H	0.6078137515795827 0.5490624295813608 0.3296824916309201	0.122285
H	0.6984212983434261 0.6429779834230542 0.3413522572634179	0.099657
H	0.8596255238415875 0.8006880679287692 0.7905693966735837	0.099866
H	0.9535633507001715 0.8925951930635272 0.7980082575477242	0.123278
H	0.8921862994204179 0.9509376214186399 0.3296824916309201	0.122285
H	0.8015787016565739 0.8570220165769458 0.3413522572634179	0.099657
H	0.3006880939287717 0.3596254478415885 0.2094305883264186	0.099855
H	0.3925951170635206 0.4535632997001710 0.2019916984522724	0.123279
H	0.4509376214186399 0.3921862994204183 0.6703174783690848	0.122285
H	0.3570220415769512 0.3015787276565760 0.6586477427365824	0.099657
H	0.1993119190712259 0.1403745781584135 0.2094305883264186	0.099855
H	0.1074048579364737 0.0464367162998304 0.2019916984522724	0.123279
H	0.0490623725813597 0.1078137265795839 0.6703174783690848	0.122284
H	0.1429779834230546 0.1984212603434231 0.6586477427365824	0.099657
H	0.3596254478415885 0.1993119190712259 0.2094305883264186	0.099855
H	0.4535632997001710 0.1074048579364737 0.2019916984522724	0.123279
H	0.3921862994204183 0.0490623725813597 0.6703174783690848	0.122285
H	0.3015787276565760 0.1429779834230546 0.6586477427365824	0.099657
H	0.1403745781584135 0.3006880939287717 0.2094305883264186	0.099855
H	0.0464367162998304 0.3925951170635206 0.2019916984522724	0.123279
H	0.1078137265795839 0.4509376214186399 0.6703174783690848	0.122284
H	0.1984212603434231 0.3570220415769512 0.6586477427365824	0.099657
H	0.5071713364119470 0.0011545140808816 0.3210186603792994	0.106851
H	0.9928287145880537 0.4988454579191161 0.3210186603792994	0.106851
H	0.4988454579191161 0.5071713364119470 0.3210186603792994	0.106851
H	0.0011545140808816 0.9928287145880537 0.3210186603792994	0.106851
H	0.4928286635880531 0.5011544920808869 0.6789813696206958	0.106854
H	0.0071713274119497 0.9988454579191161 0.6789813696206958	0.106850
H	0.5011544920808869 0.0071713274119497 0.6789813696206958	0.106854
H	0.9988454579191161 0.4928286635880531 0.6789813696206958	0.106850
Cu	0.2500000000000000 0.2500000000000000 0.4333210555509495	0.717169
Cu	0.7500000000000000 0.7500000000000000 0.5666789444490503	0.717178
Zr	0.2500000000000000 0.2500000000000000 0.9352190455002590	2.467754
Zr	0.7500000000000000 0.7500000000000000 0.0647809394997430	2.467756
F	0.2500000000000000 0.2500000000000000 0.1754363565326282	-0.648674
F	0.2500000000000000 0.2500000000000000 0.6947997880703439	-0.647927
F	0.7500000000000000 0.7500000000000000 0.8245636734673742	-0.648687
F	0.7500000000000000 0.7500000000000000 0.3052002119296560	-0.647927
F	0.3275035959275540 0.3254766162850746 0.9351801801521143	-0.688700
F	0.1724964290724446 0.1745234087149239 0.9351801801521143	-0.688700
F	0.1745234087149239 0.3275035959275540 0.9351801801521143	-0.688700
F	0.3254766162850746 0.1724964290724446 0.9351801801521143	-0.688700
F	0.6724964290724449 0.8254766162850744 0.0648198198478858	-0.688700
F	0.8275035709275551 0.6745233837149256 0.0648198198478858	-0.688700
F	0.8254766162850744 0.8275035709275551 0.0648198198478858	-0.688700
F	0.6745233837149256 0.6724964290724449 0.0648198198478858	-0.688700
N	0.3273419279652386 0.1750282257015872 0.4342866574066055	-0.226681
N	0.1726580970347599 0.3249717992984114 0.4342866574066055	-0.226681
N	0.3249717992984114 0.3273419279652386 0.4342866574066055	-0.226681
N	0.1750282257015872 0.1726580970347599 0.4342866574066055	-0.226681
N	0.6726580720347616 0.6750282007015890 0.5657133425933949	-0.226688
N	0.8273419279652384 0.8249717992984110 0.5657133425933949	-0.226688
N	0.6750282007015890 0.8273419279652384 0.5657133425933949	-0.226688
N	0.8249717992984110 0.6726580720347616 0.5657133425933949	-0.226687
	  	
