#======================================================================

# CRYSTAL DATA

#----------------------------------------------------------------------

data_VESTA_phase_1


_pd_phase_name                         ZrFSIX_3_Fe
_cell_length_a                         14.48181
_cell_length_b                         14.48181
_cell_length_c                         8.27031
_cell_angle_alpha                      90
_cell_angle_beta                       90
_cell_angle_gamma                      90
_symmetry_space_group_name_H-M         P 1
_symmetry_Int_Tables_number            1

loop_
_symmetry_equiv_pos_as_xyz
   x, y, z

loop_
   _atom_site_label
   _atom_site_fract_x
   _atom_site_fract_y
   _atom_site_fract_z
   _atom_site_charge
C	0.2707331674860463 0.4519169686193338 0.6339764596360918	0.065760
C	0.2292668325139535 0.0480830353806665 0.6339764596360918	0.065761
C	0.2292668325139535 0.4519169686193338 0.3660235083639053	0.065766
C	0.2707331674860463 0.0480830353806665 0.3660235083639053	0.065767
C	0.0480830353806665 0.2707331674860463 0.3660235083639053	0.065771
C	0.4519169686193338 0.2292668325139535 0.3660235083639053	0.065770
C	0.4519169686193338 0.2707331674860463 0.6339764596360918	0.065776
C	0.0480830353806665 0.2292668325139535 0.6339764596360918	0.065777
C	0.9519169006193352 0.2292668325139535 0.6339764596360918	0.065786
C	0.5480830993806648 0.2707331674860463 0.6339764596360918	0.065787
C	0.5480830993806648 0.2292668325139535 0.3660235083639053	0.065791
C	0.9519169006193352 0.2707331674860463 0.3660235083639053	0.065791
C	0.7292668495139510 0.0480830353806665 0.3660235083639053	0.065771
C	0.7707331504860490 0.4519169686193338 0.3660235083639053	0.065771
C	0.7707331504860490 0.0480830353806665 0.6339764596360918	0.065777
C	0.7292668495139510 0.4519169686193338 0.6339764596360918	0.065776
C	0.4519169686193338 0.7292668495139510 0.6339764596360918	0.065762
C	0.0480830353806665 0.7707331504860490 0.6339764596360918	0.065763
C	0.0480830353806665 0.7292668495139510 0.3660235083639053	0.065768
C	0.4519169686193338 0.7707331504860490 0.3660235083639053	0.065768
C	0.2292668325139535 0.5480830993806648 0.3660235083639053	0.065796
C	0.2707331674860463 0.9519169006193352 0.3660235083639053	0.065795
C	0.2707331674860463 0.5480830993806648 0.6339764596360918	0.065801
C	0.2292668325139535 0.9519169006193352 0.6339764596360918	0.065800
C	0.7707331504860490 0.9519169006193352 0.6339764596360918	0.065786
C	0.7292668495139510 0.5480830993806648 0.6339764596360918	0.065787
C	0.7292668495139510 0.9519169006193352 0.3660235083639053	0.065791
C	0.7707331504860490 0.5480830993806648 0.3660235083639053	0.065792
C	0.5480830993806648 0.7707331504860490 0.3660235083639053	0.065796
C	0.9519169006193352 0.7292668495139510 0.3660235083639053	0.065795
C	0.9519169006193352 0.7707331504860490 0.6339764596360918	0.065800
C	0.5480830993806648 0.7292668495139510 0.6339764596360918	0.065800
H	0.2881425520791613 0.4141692607264300 0.7440238693988348	0.105249
H	0.2118574139208359 0.0858307392735701 0.7440238693988348	0.105249
H	0.2118574139208359 0.4141692607264300 0.2559760996011661	0.105249
H	0.2881425520791613 0.0858307392735701 0.2559760996011661	0.105249
H	0.0858307392735701 0.2881425520791613 0.2559760996011661	0.105248
H	0.4141692607264300 0.2118574139208359 0.2559760996011661	0.105248
H	0.4141692607264300 0.2881425520791613 0.7440238693988348	0.105247
H	0.0858307392735701 0.2118574139208359 0.7440238693988348	0.105247
H	0.9141693287264355 0.2118574139208359 0.7440238693988348	0.105245
H	0.5858306712735645 0.2881425520791613 0.7440238693988348	0.105245
H	0.5858306712735645 0.2118574139208359 0.2559760996011661	0.105245
H	0.9141693287264355 0.2881425520791613 0.2559760996011661	0.105245
H	0.7118573799208401 0.0858307392735701 0.2559760996011661	0.105248
H	0.7881426200791599 0.4141692607264300 0.2559760996011661	0.105248
H	0.7881426200791599 0.0858307392735701 0.7440238693988348	0.105247
H	0.7118573799208401 0.4141692607264300 0.7440238693988348	0.105247
H	0.4141692607264300 0.7118573799208401 0.7440238693988348	0.105249
H	0.0858307392735701 0.7881426200791599 0.7440238693988348	0.105248
H	0.0858307392735701 0.7118573799208401 0.2559760996011661	0.105249
H	0.4141692607264300 0.7881426200791599 0.2559760996011661	0.105248
H	0.2118574139208359 0.5858306712735645 0.2559760996011661	0.105244
H	0.2881425520791613 0.9141693287264355 0.2559760996011661	0.105244
H	0.2881425520791613 0.5858306712735645 0.7440238693988348	0.105243
H	0.2118574139208359 0.9141693287264355 0.7440238693988348	0.105243
H	0.7881426200791599 0.9141693287264355 0.7440238693988348	0.105245
H	0.7118573799208401 0.5858306712735645 0.7440238693988348	0.105245
H	0.7118573799208401 0.9141693287264355 0.2559760996011661	0.105245
H	0.7881426200791599 0.5858306712735645 0.2559760996011661	0.105245
H	0.5858306712735645 0.7881426200791599 0.2559760996011661	0.105244
H	0.9141693287264355 0.7118573799208401 0.2559760996011661	0.105244
H	0.9141693287264355 0.7881426200791599 0.7440238693988348	0.105243
H	0.5858306712735645 0.7118573799208401 0.7440238693988348	0.105243
Fe	0.2500000000000000 0.2500000000000000 0.5000000000000000	0.815279
Fe	0.7500000340000028 0.2500000000000000 0.5000000000000000	0.815281
Fe	0.2500000000000000 0.7500000340000028 0.5000000000000000	0.815281
Fe	0.7500000340000028 0.7500000340000028 0.5000000000000000	0.815282
Zr	0.2500000000000000 0.2500000000000000 0.0000000000000000	2.443916
Zr	0.7500000340000028 0.2500000000000000 0.0000000000000000	2.443913
Zr	0.2500000000000000 0.7500000340000028 0.0000000000000000	2.443913
Zr	0.7500000340000028 0.7500000340000028 0.0000000000000000	2.443909
F	0.2500000000000000 0.2500000000000000 0.7437503972597048	-0.591820
F	0.2500000000000000 0.2500000000000000 0.2562496027402948	-0.591820
F	0.3477637574228118 0.3477637574228118 -0.0319187262656743	-0.648448
F	0.1522362425771882 0.1522362425771882 -0.0319187262656743	-0.648447
F	0.1522362425771882 0.3477637574228118 0.0319187472656725	-0.648447
F	0.3477637574228118 0.1522362425771882 0.0319187472656725	-0.648447
F	0.7500000340000028 0.2500000000000000 0.7437503972597047	-0.591820
F	0.7500000340000028 0.2500000000000000 0.2562496027402948	-0.591820
F	0.8477637914228147 0.3477637574228118 0.0319187472656725	-0.648449
F	0.6522362085771853 0.1522362425771882 0.0319187472656725	-0.648447
F	0.6522362085771853 0.3477637574228118 -0.0319187262656743	-0.648448
F	0.8477637914228147 0.1522362425771882 -0.0319187262656743	-0.648448
F	0.2500000000000000 0.7500000340000028 0.7437503972597047	-0.591820
F	0.2500000000000000 0.7500000340000028 0.2562496027402948	-0.591820
F	0.3477637574228118 0.8477637914228147 0.0319187472656725	-0.648449
F	0.1522362425771882 0.6522362085771853 0.0319187472656725	-0.648447
F	0.1522362425771882 0.8477637914228147 -0.0319187262656743	-0.648448
F	0.3477637574228118 0.6522362085771853 -0.0319187262656743	-0.648448
F	0.7500000340000028 0.7500000340000028 0.7437503972597048	-0.591819
F	0.7500000340000028 0.7500000340000028 0.2562496027402948	-0.591820
F	0.8477637914228147 0.8477637914228147 -0.0319187262656743	-0.648450
F	0.6522362085771853 0.6522362085771853 -0.0319187262656743	-0.648448
F	0.6522362085771853 0.8477637914228147 0.0319187472656725	-0.648448
F	0.8477637914228147 0.6522362085771853 0.0319187472656725	-0.648448
N	0.4033248403277744 0.2500000000000000 0.5000000000000000	-0.212494
N	0.0966751596722255 0.2500000000000000 0.5000000000000000	-0.212493
N	0.2500000000000000 0.4033248403277744 0.5000000000000000	-0.212490
N	0.2500000000000000 0.0966751596722255 0.5000000000000000	-0.212490
N	0.9033248403277747 0.2500000000000000 0.5000000000000000	-0.212498
N	0.5966751596722253 0.2500000000000000 0.5000000000000000	-0.212497
N	0.7500000340000028 0.4033248403277744 0.5000000000000000	-0.212493
N	0.7500000340000028 0.0966751596722255 0.5000000000000000	-0.212492
N	0.4033248403277744 0.7500000340000028 0.5000000000000000	-0.212492
N	0.0966751596722255 0.7500000340000028 0.5000000000000000	-0.212491
N	0.2500000000000000 0.9033248403277747 0.5000000000000000	-0.212499
N	0.2500000000000000 0.5966751596722253 0.5000000000000000	-0.212498
N	0.9033248403277747 0.7500000340000028 0.5000000000000000	-0.212500
N	0.5966751596722253 0.7500000340000028 0.5000000000000000	-0.212499
N	0.7500000340000028 0.9033248403277747 0.5000000000000000	-0.212497
N	0.7500000340000028 0.5966751596722253 0.5000000000000000	-0.212496
	  	
