#======================================================================

# CRYSTAL DATA

#----------------------------------------------------------------------

data_VESTA_phase_1


_pd_phase_name                         ZrFSIX_1_Co
_cell_length_a                         11.02990
_cell_length_b                         11.02990
_cell_length_c                         8.42816
_cell_angle_alpha                      90
_cell_angle_beta                       90
_cell_angle_gamma                      90
_symmetry_space_group_name_H-M         P 1
_symmetry_Int_Tables_number            1

loop_
_symmetry_equiv_pos_as_xyz
   x, y, z

loop_
   _atom_site_label
   _atom_site_fract_x
   _atom_site_fract_y
   _atom_site_fract_z
   _atom_site_charge
C	0.2584955904776221 0.4579766487583354 0.3736640933066362	0.098486
C	0.1326606113305063 0.4578818232901125 0.3689092836792642	-0.165759
C	0.7415044965223815 0.5420233942416647 0.3736640933066362	0.098486
C	0.8673394326694975 0.5421181767098878 0.3689092836792642	-0.165759
C	0.5420233942416647 0.2584955904776221 0.3736640933066362	0.098486
C	0.5421181767098878 0.1326606113305063 0.3689092836792642	-0.165760
C	0.4579766487583354 0.7415044965223815 0.3736640933066362	0.098486
C	0.4578818232901125 0.8673394326694976 0.3689092836792642	-0.165760
C	0.7415044965223815 0.4579766487583354 0.6263358766933614	0.098485
C	0.8673394326694975 0.4578818232901125 0.6310906873207296	-0.165756
C	0.2584955904776221 0.5420233942416647 0.6263358766933614	0.098485
C	0.1326606113305063 0.5421181767098878 0.6310906873207296	-0.165755
C	0.4579766487583354 0.2584955904776221 0.6263358766933614	0.098486
C	0.4578818232901125 0.1326606113305063 0.6310906873207296	-0.165757
C	0.5420233942416647 0.7415044965223815 0.6263358766933614	0.098485
C	0.5421181767098878 0.8673394326694975 0.6310906873207296	-0.165756
C	0.0669093126672114 0.5000000000000000 0.5000000000000000	0.099943
C	0.9330907633327875 0.5000000000000000 0.5000000000000000	0.099948
C	0.5000000000000000 0.0669093126672114 0.5000000000000000	0.099944
C	0.5000000000000000 0.9330907633327875 0.5000000000000000	0.099948
H	0.3110175199471134 0.4247322421837127 0.2733386293756456	0.098220
H	0.0871216904941931 0.4231204890918552 0.2635691232988431	0.129243
H	0.6889824370528863 0.5752677578162873 0.2733386293756456	0.098220
H	0.9128783255058082 0.5768795109081450 0.2635691232988431	0.129240
H	0.5752677578162873 0.3110175199471134 0.2733386293756456	0.098220
H	0.5768795109081450 0.0871216904941931 0.2635691232988431	0.129250
H	0.4247322421837127 0.6889824370528863 0.2733386293756456	0.098220
H	0.4231204890918552 0.9128783255058082 0.2635691232988431	0.129246
H	0.6889824370528863 0.4247322421837127 0.7266613416243557	0.098220
H	0.9128783255058082 0.4231204890918552 0.7364309357011581	0.129242
H	0.3110175199471134 0.5752677578162873 0.7266613416243557	0.098220
H	0.0871216904941931 0.5768795109081450 0.7364309357011581	0.129239
H	0.4247322421837127 0.3110175199471134 0.7266613416243557	0.098220
H	0.4231204890918552 0.0871216904941931 0.7364309357011581	0.129249
H	0.5752677578162873 0.6889824370528863 0.7266613416243557	0.098220
H	0.5768795109081450 0.9128783255058082 0.7364309357011581	0.129245
Co	0.5000000000000000 0.5000000000000000 0.5000000000000000	0.586451
Zr	0.5000000000000000 0.5000000000000000 -0.0000000000000000	2.459356
F	0.5000000000000000 0.5000000000000000 0.7547699802848272	-0.619949
F	0.5000000000000000 0.5000000000000000 0.2452300197151726	-0.619949
F	0.3691649364588068 0.3691649364588068 -0.0000000000000000	-0.682095
F	0.6308350635411931 0.6308350635411931 -0.0000000000000000	-0.682095
F	0.6308350635411931 0.3691649364588068 -0.0000000000000000	-0.682095
F	0.3691649364588068 0.6308350635411931 -0.0000000000000000	-0.682095
N	0.3209394798317580 0.5000000000000000 0.5000000000000000	-0.189711
N	0.6790605421682444 0.5000000000000000 0.5000000000000000	-0.189711
N	0.5000000000000000 0.3209394798317580 0.5000000000000000	-0.189711
N	0.5000000000000000 0.6790605421682444 0.5000000000000000	-0.189710
	  	
