#======================================================================

# CRYSTAL DATA

#----------------------------------------------------------------------

data_VESTA_phase_1


_pd_phase_name                         ZrFSIX_15_Fe_i
_cell_length_a                         29.71976
_cell_length_b                         28.77352
_cell_length_c                         8.37100
_cell_angle_alpha                      90
_cell_angle_beta                       90
_cell_angle_gamma                      90
_symmetry_space_group_name_H-M         P 1
_symmetry_Int_Tables_number            1

loop_
_symmetry_equiv_pos_as_xyz
   x, y, z

loop_
   _atom_site_label
   _atom_site_fract_x
   _atom_site_fract_y
   _atom_site_fract_z
   _atom_site_charge
C	0.9346549853853038 0.1037164302614209 0.8885259356086326	0.107449
C	0.9023475299790439 0.0690086852791849 0.8939772524889157	-0.160059
C	0.7700772028665154 0.9362681493844563 0.8957482744069259	-0.114336
C	0.7357409277572491 0.9037421429184103 0.8955245055499816	-0.115820
C	0.5669286534556369 0.7402696095603336 0.8883755450157722	0.105611
C	0.6007181975860258 0.7734372070092111 0.8936470410855062	-0.163127
C	0.4346550173852998 0.6037164462614217 0.8885259356086326	0.107449
C	0.4023475619790464 0.5690086482791855 0.8939772524889157	-0.160058
C	0.2700771388665171 0.4362681823844555 0.8957482744069259	-0.114336
C	0.2357408957572468 0.4037422089184163 0.8955245055499816	-0.115820
C	0.0669286774556386 0.2402695925603358 0.8883755450157722	0.105611
C	0.1007181735860236 0.2734372400092100 0.8936470410855062	-0.163127
C	0.0653449826147001 0.8962835537385783 0.3885259666086317	0.107449
C	0.0976524460209541 0.9309913517208145 0.3939772844889110	-0.160059
C	0.2299228131334860 0.0637318136155441 0.3957483364069244	-0.114335
C	0.2642590882427520 0.0962578070815852 0.3955245055499817	-0.115820
C	0.4330713145443607 0.2597304404396635 0.3883755760157714	0.105610
C	0.3992818024139743 0.2265627599907900 0.3936470410855064	-0.163126
C	0.5653450146146962 0.3962835867385769 0.3885259666086317	0.107449
C	0.5976524700209561 0.4309913517208147 0.3939772844889110	-0.160060
C	0.7299227971334846 0.5637318506155437 0.3957483364069244	-0.114335
C	0.7642590722427509 0.5962578570815897 0.3955245055499817	-0.115820
C	0.9330713465443631 0.7597303904396664 0.3883755760157714	0.105610
C	0.8992818024139742 0.7265627929907889 0.3936470410855064	-0.163126
C	0.0653449826147001 0.1037164302614209 0.6114740333913684	0.107449
C	0.0976524460209541 0.0690086852791849 0.6060226535110836	-0.160059
C	0.2299228131334860 0.9362681493844563 0.6042516945930750	-0.114342
C	0.2642590882427520 0.9037421429184103 0.6044755254500174	-0.115819
C	0.4330713145443607 0.7402696095603336 0.6116243609842271	0.105611
C	0.3992818024139743 0.7734372070092111 0.6063529279144948	-0.163127
C	0.5653450146146962 0.6037164462614217 0.6114740333913684	0.107449
C	0.5976524700209561 0.5690086482791855 0.6060226535110836	-0.160059
C	0.7299227971334846 0.4362681823844555 0.6042516945930750	-0.114343
C	0.7642590722427509 0.4037422089184163 0.6044755254500174	-0.115819
C	0.9330713465443631 0.2402695925603358 0.6116243609842271	0.105611
C	0.8992818024139742 0.2734372400092100 0.6063529279144948	-0.163127
C	0.9346549853853038 0.8962835537385783 0.1114740493913695	0.107449
C	0.9023475299790439 0.9309913517208145 0.1060226925110837	-0.160060
C	0.7700772028665154 0.0637318136155441 0.1042516945930746	-0.114342
C	0.7357409277572491 0.0962578070815852 0.1044755104500125	-0.115819
C	0.5669286534556369 0.2597304404396635 0.1116244159842280	0.105610
C	0.6007181975860258 0.2265627599907900 0.1063529739144916	-0.163126
C	0.4346550173852998 0.3962835867385769 0.1114740493913695	0.107449
C	0.4023475619790464 0.4309913517208147 0.1060226925110837	-0.160059
C	0.2700771388665171 0.5637318506155437 0.1042516945930746	-0.114342
C	0.2357408957572468 0.5962578570815897 0.1044755104500125	-0.115819
C	0.0669286774556386 0.7597303904396664 0.1116244159842280	0.105610
C	0.1007181735860236 0.7265627929907889 0.1063529739144916	-0.163126
C	0.0653449826147001 0.8962835537385783 0.1114740493913695	0.107449
C	0.0976524460209541 0.9309913517208145 0.1060226925110837	-0.160059
C	0.2299228131334860 0.0637318136155441 0.1042516945930746	-0.114342
C	0.2642590882427520 0.0962578070815852 0.1044755104500125	-0.115820
C	0.4330713145443607 0.2597304404396635 0.1116244159842280	0.105610
C	0.3992818024139743 0.2265627599907900 0.1063529739144916	-0.163126
C	0.5653450146146962 0.3962835867385769 0.1114740493913695	0.107449
C	0.5976524700209561 0.4309913517208147 0.1060226925110837	-0.160059
C	0.7299227971334846 0.5637318506155437 0.1042516945930746	-0.114342
C	0.7642590722427509 0.5962578570815897 0.1044755104500125	-0.115820
C	0.9330713465443631 0.7597303904396664 0.1116244159842280	0.105610
C	0.8992818024139742 0.7265627929907889 0.1063529739144916	-0.163126
C	0.9346549853853038 0.1037164302614209 0.6114740333913684	0.107449
C	0.9023475299790439 0.0690086852791849 0.6060226535110836	-0.160059
C	0.7700772028665154 0.9362681493844563 0.6042516945930750	-0.114342
C	0.7357409277572491 0.9037421429184103 0.6044755254500174	-0.115819
C	0.5669286534556369 0.7402696095603334 0.6116243609842271	0.105610
C	0.6007181975860258 0.7734372070092111 0.6063529279144948	-0.163127
C	0.4346550173852998 0.6037164462614217 0.6114740333913684	0.107449
C	0.4023475619790464 0.5690086482791855 0.6060226535110836	-0.160058
C	0.2700771388665171 0.4362681823844555 0.6042516945930750	-0.114342
C	0.2357408957572468 0.4037422089184163 0.6044755254500174	-0.115819
C	0.0669286774556386 0.2402695925603358 0.6116243609842271	0.105611
C	0.1007181735860236 0.2734372400092100 0.6063529279144948	-0.163127
C	0.9346549853853038 0.8962835537385783 0.3885259666086317	0.107449
C	0.9023475299790439 0.9309913517208145 0.3939772844889110	-0.160060
C	0.7700772028665154 0.0637318136155441 0.3957483364069244	-0.114335
C	0.7357409277572491 0.0962578070815852 0.3955245055499817	-0.115820
C	0.5669286534556369 0.2597304404396635 0.3883755760157714	0.105610
C	0.6007181975860258 0.2265627599907900 0.3936470410855064	-0.163126
C	0.4346550173852998 0.3962835867385769 0.3885259666086317	0.107449
C	0.4023475619790464 0.4309913517208147 0.3939772844889110	-0.160059
C	0.2700771388665171 0.5637318506155437 0.3957483364069244	-0.114335
C	0.2357408957572468 0.5962578570815897 0.3955245055499817	-0.115821
C	0.0669286774556386 0.7597303904396664 0.3883755760157714	0.105610
C	0.1007181735860236 0.7265627929907889 0.3936470410855064	-0.163127
C	0.0653449826147001 0.1037164302614209 0.8885259356086326	0.107448
C	0.0976524460209541 0.0690086852791849 0.8939772524889157	-0.160059
C	0.2299228131334860 0.9362681493844563 0.8957482744069259	-0.114336
C	0.2642590882427520 0.9037421429184103 0.8955245055499816	-0.115820
C	0.4330713145443607 0.7402696095603336 0.8883755450157722	0.105610
C	0.3992818024139743 0.7734372070092111 0.8936470410855062	-0.163127
C	0.5653450146146962 0.6037164462614217 0.8885259356086326	0.107449
C	0.5976524700209561 0.5690086482791855 0.8939772524889157	-0.160059
C	0.7299227971334846 0.4362681823844555 0.8957482744069259	-0.114336
C	0.7642590722427509 0.4037422089184163 0.8955245055499816	-0.115820
C	0.9330713465443631 0.2402695925603358 0.8883755450157722	0.105610
C	0.8992818024139742 0.2734372400092100 0.8936470410855062	-0.163127
C	0.6531409188425195 0.8246033249029904 0.7500000160000013	-0.104280
C	0.8852970570894497 0.0508837744641765 0.7500000160000013	0.163047
C	0.8223515994929665 0.9865727348630480 0.7500000160000013	-0.096245
C	0.6185976559126753 0.7909499074531890 0.7500000160000013	0.167627
C	0.7877309239878623 0.9530398911719523 0.7500000160000013	0.126613
C	0.7179849224099296 0.8868963965941472 0.7500000160000013	0.139187
C	0.6831329476769927 0.8535771548214881 0.7500000160000013	-0.099178
C	0.8518539057819514 0.0160901600033706 0.7500000160000013	-0.109242
C	0.1531409028425180 0.3246033249029904 0.7500000160000013	-0.104281
C	0.3852969610894489 0.5508837864641772 0.7500000160000013	0.163047
C	0.3223515994929668 0.4865727348630483 0.7500000160000013	-0.096245
C	0.1185976479126750 0.2909499074531890 0.7500000160000013	0.167627
C	0.2877308919878669 0.4530398911719523 0.7500000160000013	0.126613
C	0.2179849064099284 0.3868964295941466 0.7500000160000013	0.139187
C	0.1831329146769940 0.3535771218214889 0.7500000160000013	-0.099178
C	0.3518538737819489 0.5160901550033669 0.7500000160000013	-0.109242
C	0.3468591131574831 0.1753966750970096 0.2500000000000000	-0.104280
C	0.1147030149105561 0.9491162135358228 0.2500000000000000	0.163047
C	0.1776484005070333 0.0134272611369514 0.2500000000000000	-0.096244
C	0.3814023440873243 0.2090500765468098 0.2500000000000000	0.167626
C	0.2122690920121389 0.0469601008280470 0.2500000000000000	0.126612
C	0.2820150775900702 0.1131035624058527 0.2500000000000000	0.139188
C	0.3168670853230059 0.1464228451785121 0.2500000000000000	-0.099178
C	0.1481461262180512 0.9839098119966340 0.2500000000000000	-0.109243
C	0.8468590811574805 0.6753966750970096 0.2500000000000000	-0.104280
C	0.6147029429105503 0.4491162465358216 0.2500000000000000	0.163047
C	0.6776484005070335 0.5134272651369520 0.2500000000000000	-0.096244
C	0.8814023440873247 0.7090500925468110 0.2500000000000000	0.167626
C	0.7122690760121378 0.5469601418280469 0.2500000000000000	0.126612
C	0.7820150775900704 0.6131036034058528 0.2500000000000000	0.139187
C	0.8168670523230073 0.6464228451785119 0.2500000000000000	-0.099178
C	0.6481460942180486 0.4839098119966339 0.2500000000000000	-0.109243
C	0.3468591131574831 0.8246033249029904 0.7500000160000013	-0.104281
C	0.1147030149105561 0.0508837744641765 0.7500000160000013	0.163047
C	0.1776484005070333 0.9865727348630480 0.7500000160000013	-0.096245
C	0.3814023440873243 0.7909499074531890 0.7500000160000013	0.167627
C	0.2122690920121389 0.9530398911719523 0.7500000160000013	0.126613
C	0.2820150775900702 0.8868963965941472 0.7500000160000013	0.139187
C	0.3168670853230059 0.8535771548214881 0.7500000160000013	-0.099178
C	0.1481461262180512 0.0160901600033706 0.7500000160000013	-0.109242
C	0.8468590811574805 0.3246033249029904 0.7500000160000013	-0.104280
C	0.6147029429105503 0.5508837864641772 0.7500000160000013	0.163047
C	0.6776484005070335 0.4865727348630483 0.7500000160000013	-0.096245
C	0.8814023440873247 0.2909499074531890 0.7500000160000013	0.167626
C	0.7122690760121377 0.4530398911719523 0.7500000160000013	0.126613
C	0.7820150775900704 0.3868964295941466 0.7500000160000013	0.139187
C	0.8168670523230073 0.3535771218214889 0.7500000160000013	-0.099178
C	0.6481460942180486 0.5160901550033669 0.7500000160000013	-0.109242
C	0.6531409188425195 0.1753966750970096 0.2500000000000000	-0.104280
C	0.8852970570894497 0.9491162135358228 0.2500000000000000	0.163047
C	0.8223515994929665 0.0134272611369514 0.2500000000000000	-0.096244
C	0.6185976559126753 0.2090500765468098 0.2500000000000000	0.167626
C	0.7877309239878623 0.0469601008280470 0.2500000000000000	0.126612
C	0.7179849224099296 0.1131035624058527 0.2500000000000000	0.139187
C	0.6831329476769927 0.1464228451785121 0.2500000000000000	-0.099178
C	0.8518539057819514 0.9839098119966340 0.2500000000000000	-0.109243
C	0.1531409028425180 0.6753966750970096 0.2500000000000000	-0.104280
C	0.3852969610894489 0.4491162465358216 0.2500000000000000	0.163047
C	0.3223515994929668 0.5134272651369520 0.2500000000000000	-0.096244
C	0.1185976479126750 0.7090500925468110 0.2500000000000000	0.167626
C	0.2877308919878669 0.5469601418280469 0.2500000000000000	0.126612
C	0.2179849064099284 0.6131036034058528 0.2500000000000000	0.139188
C	0.1831329146769940 0.6464228451785119 0.2500000000000000	-0.099178
C	0.3518538737819490 0.4839098119966339 0.2500000000000000	-0.109243
H	0.9480810465324772 0.1180883679870882 -0.0014433493151962	0.080536
H	0.8904586574826423 0.0561364239518176 0.0089019122752265	0.123163
H	0.7838448733192921 0.9492480355579223 0.0078530912168215	0.106282
H	0.7220259626025404 0.8907521941889646 0.0075402081106384	0.115407
H	0.5529863544963104 0.7265265129465979 -0.0014712743227155	0.079339
H	0.6131737902561160 0.7855903762253995 0.0085870975573394	0.127807
H	0.4480811425324780 0.6180883839870823 -0.0014433493151962	0.080536
H	0.3904585934826447 0.5561364529518232 0.0089019122752265	0.123163
H	0.2838448733192920 0.4492480355579226 0.0078530912168215	0.106282
H	0.2220259786025414 0.3907522931889691 0.0075402081106384	0.115407
H	0.0529863624963111 0.2265265619465986 -0.0014712743227155	0.079339
H	0.1131738062561104 0.2855903102254006 0.0085870975573394	0.127807
H	0.0519188934675179 0.8819116160129177 0.4985566796848029	0.080536
H	0.1095413905173541 0.9438635470481768 0.5089019472752258	0.123163
H	0.2161551586807103 0.0507519814420823 0.5078531232168236	0.106282
H	0.2779740373974601 0.1092477318110364 0.5075402041106384	0.115407
H	0.4470136455036895 0.2734734210534035 0.4985287256772844	0.079338
H	0.3868262097438838 0.2144096407745986 0.5085871285573387	0.127807
H	0.5519189534675228 0.3819116160129175 0.4985566796848029	0.080537
H	0.6095413425173577 0.4438635800481825 0.5089019472752258	0.123163
H	0.7161551266807079 0.5507519644420777 0.5078531232168236	0.106282
H	0.7779740373974596 0.6092478058110354 0.5075402041106384	0.115407
H	0.9470136455036896 0.7734734870534021 0.4985287256772844	0.079338
H	0.8868262097438840 0.7144096237746005 0.5085871285573387	0.127807
H	0.0519188934675179 0.1180883679870882 0.5014433513151965	0.080536
H	0.1095413905173541 0.0561364239518176 0.4910980527247669	0.123163
H	0.2161551586807103 0.9492480355579223 0.4921469087831783	0.106284
H	0.2779740373974601 0.8907521941889646 0.4924597958893620	0.115404
H	0.4470136455036895 0.7265265129465979 0.5014713063227183	0.079339
H	0.3868262097438838 0.7855903762253995 0.4914129024426607	0.127808
H	0.5519189534675228 0.6180883839870823 0.5014433513151965	0.080536
H	0.6095413425173577 0.5561364529518232 0.4910980527247669	0.123163
H	0.7161551266807079 0.4492480355579226 0.4921469087831783	0.106284
H	0.7779740373974596 0.3907522931889691 0.4924597958893620	0.115405
H	0.9470136455036896 0.2265265619465986 0.5014713063227183	0.079339
H	0.8868262097438840 0.2855903102254006 0.4914129024426607	0.127807
H	0.9480810465324772 0.8819116160129177 0.0014433513151962	0.080537
H	0.8904586574826423 0.9438635470481768 0.9910980217247681	0.123163
H	0.7838448733192921 0.0507519814420823 0.9921469087831790	0.106284
H	0.7220259626025404 0.1092477318110364 0.9924597648893555	0.115405
H	0.5529863544963104 0.2734734210534035 0.0014712743227157	0.079338
H	0.6131737902561160 0.2144096407745986 0.9914129024426603	0.127807
H	0.4480811425324780 0.3819116160129175 0.0014433513151962	0.080537
H	0.3904585934826447 0.4438635800481825 0.9910980217247681	0.123163
H	0.2838448733192920 0.5507519644420777 0.9921469087831790	0.106284
H	0.2220259786025414 0.6092478058110354 0.9924597648893555	0.115405
H	0.0529863624963111 0.7734734870534021 0.0014712743227157	0.079339
H	0.1131738062561104 0.7144096237746005 0.9914129024426603	0.127807
H	0.0519188934675179 0.8819116160129177 0.0014433513151962	0.080537
H	0.1095413905173541 0.9438635470481768 0.9910980217247681	0.123163
H	0.2161551586807103 0.0507519814420823 0.9921469087831790	0.106284
H	0.2779740373974601 0.1092477318110364 0.9924597648893555	0.115406
H	0.4470136455036895 0.2734734210534035 0.0014712743227157	0.079339
H	0.3868262097438838 0.2144096407745986 0.9914129024426603	0.127807
H	0.5519189534675228 0.3819116160129175 0.0014433513151962	0.080537
H	0.6095413425173577 0.4438635800481825 0.9910980217247681	0.123163
H	0.7161551266807079 0.5507519644420777 0.9921469087831790	0.106284
H	0.7779740373974596 0.6092478058110354 0.9924597648893555	0.115406
H	0.9470136455036896 0.7734734870534021 0.0014712743227157	0.079339
H	0.8868262097438840 0.7144096237746005 0.9914129024426603	0.127807
H	0.9480810465324772 0.1180883679870882 0.5014433513151965	0.080537
H	0.8904586574826423 0.0561364239518176 0.4910980527247669	0.123163
H	0.7838448733192921 0.9492480355579223 0.4921469087831783	0.106284
H	0.7220259626025404 0.8907521941889646 0.4924597958893620	0.115406
H	0.5529863544963104 0.7265265129465979 0.5014713063227183	0.079339
H	0.6131737902561160 0.7855903762253995 0.4914129024426607	0.127807
H	0.4480811425324780 0.6180883839870823 0.5014433513151965	0.080536
H	0.3904585934826447 0.5561364529518232 0.4910980527247669	0.123163
H	0.2838448733192920 0.4492480355579226 0.4921469087831783	0.106284
H	0.2220259786025414 0.3907522931889691 0.4924597958893620	0.115406
H	0.0529863624963111 0.2265265619465986 0.5014713063227183	0.079339
H	0.1131738062561104 0.2855903102254006 0.4914129024426607	0.127807
H	0.9480810465324772 0.8819116160129177 0.4985566796848029	0.080537
H	0.8904586574826423 0.9438635470481768 0.5089019472752258	0.123163
H	0.7838448733192921 0.0507519814420823 0.5078531232168236	0.106282
H	0.7220259626025404 0.1092477318110364 0.5075402041106384	0.115409
H	0.5529863544963104 0.2734734210534035 0.4985287256772844	0.079338
H	0.6131737902561160 0.2144096407745986 0.5085871285573387	0.127807
H	0.4480811425324780 0.3819116160129175 0.4985566796848029	0.080537
H	0.3904585934826447 0.4438635800481825 0.5089019472752258	0.123163
H	0.2838448733192920 0.5507519644420777 0.5078531232168236	0.106282
H	0.2220259786025414 0.6092478058110354 0.5075402041106384	0.115409
H	0.0529863624963111 0.7734734870534021 0.4985287256772844	0.079338
H	0.1131738062561104 0.7144096237746005 0.5085871285573387	0.127807
H	0.0519188934675179 0.1180883679870882 -0.0014433493151962	0.080536
H	0.1095413905173541 0.0561364239518176 0.0089019122752265	0.123163
H	0.2161551586807103 0.9492480355579223 0.0078530912168215	0.106282
H	0.2779740373974601 0.8907521941889646 0.0075402081106384	0.115409
H	0.4470136455036895 0.7265265129465979 -0.0014712743227155	0.079339
H	0.3868262097438838 0.7855903762253995 0.0085870975573394	0.127807
H	0.5519189534675228 0.6180883839870823 -0.0014433493151962	0.080536
H	0.6095413425173577 0.5561364529518232 0.0089019122752265	0.123163
H	0.7161551266807079 0.4492480355579226 0.0078530912168215	0.106282
H	0.7779740373974596 0.3907522931889691 0.0075402081106384	0.115409
H	0.9470136455036896 0.2265265619465986 -0.0014712743227155	0.079339
H	0.8868262097438840 0.2855903102254006 0.0085870975573394	0.127807
Fe	0.5000000000000000 0.6727162142906421 0.7500000160000013	0.862322
Fe	0.0000000000000000 0.1727162312906399 0.7500000160000013	0.862322
Fe	0.5000000000000000 0.3272837857093578 0.2500000000000000	0.862322
Fe	0.0000000000000000 0.8272837857093579 0.2500000000000000	0.862322
Zr	0.5000000000000000 0.6730064026495981 0.2500000000000000	2.453106
Zr	0.0000000000000000 0.1730064026495979 0.2500000000000000	2.453106
Zr	0.5000000000000000 0.3269936293504048 0.7500000160000013	2.453106
Zr	0.0000000000000000 0.8269935973504019 0.7500000160000013	2.453106
F	0.5000000000000000 0.7435362808412762 0.2500000000000000	-0.667507
F	0.5000000000000000 0.6024440196815246 0.2500000000000000	-0.663973
F	0.0000000000000000 0.2435362318412756 0.2500000000000000	-0.667506
F	0.0000000000000000 0.1024440036815233 0.2500000000000000	-0.663973
F	0.5000000000000000 0.2564637681587247 0.7500000160000013	-0.667506
F	0.5000000000000000 0.3975559473184762 0.7500000160000013	-0.663973
F	0.0000000000000000 0.7564637191587238 0.7500000160000013	-0.667506
F	0.0000000000000000 0.8975559803184754 0.7500000160000013	-0.663973
F	0.5683330364961564 0.6730355062719485 0.2500000000000000	-0.667535
F	0.0683330564961578 0.1730355392719480 0.2500000000000000	-0.667535
F	0.4316669315038485 0.3269644277280526 0.7500000160000013	-0.667535
F	0.9316669635038436 0.8269644937280515 0.7500000160000013	-0.667535
F	0.4316669315038414 0.6730355062719485 0.2500000000000000	-0.667535
F	0.9316669635038436 0.1730355392719480 0.2500000000000000	-0.667535
F	0.5683330364961564 0.3269644277280526 0.7500000160000013	-0.667535
F	0.0683330564961578 0.8269644937280515 0.7500000160000013	-0.667535
F	0.5000000000000000 0.6729701496920037 0.4987827654286034	-0.588270
F	0.0000000000000000 0.1729701666920014 0.4987827654286034	-0.588270
F	0.5000000000000000 0.3270298833079958 -0.0012172345713968	-0.588270
F	0.0000000000000000 0.8270298503079963 -0.0012172345713968	-0.588270
F	0.5000000000000000 0.6729701496920037 0.0012172305713963	-0.588270
F	0.0000000000000000 0.1729701666920014 0.0012172305713963	-0.588270
F	0.5000000000000000 0.3270298833079958 0.5012172025714016	-0.588270
F	0.0000000000000000 0.8270298503079963 0.5012172025714016	-0.588270
N	0.5498928658969058 0.7234921351894260 0.7500000160000013	-0.254876
N	0.9508779402345292 0.1212347937366507 0.7500000160000013	-0.253322
N	0.0498928298969025 0.2234921191894248 0.7500000160000013	-0.254876
N	0.4508779402345292 0.6212347777366493 0.7500000160000013	-0.253322
N	0.4501071981030926 0.2765078648105736 0.2500000000000000	-0.254876
N	0.0491220677654714 0.8787652222633507 0.2500000000000000	-0.253322
N	0.9501071341030942 0.7765078648105740 0.2500000000000000	-0.254876
N	0.5491220597654708 0.3787652222633506 0.2500000000000000	-0.253322
N	0.4501071981030926 0.7234921351894260 0.7500000160000013	-0.254876
N	0.0491220677654714 0.1212347937366507 0.7500000160000013	-0.253322
N	0.9501071341030942 0.2234921191894249 0.7500000160000013	-0.254876
N	0.5491220597654708 0.6212347777366493 0.7500000160000013	-0.253322
N	0.5498928658969058 0.2765078648105736 0.2500000000000000	-0.254876
N	0.9508779402345292 0.8787652222633507 0.2500000000000000	-0.253322
N	0.0498928298969025 0.7765078648105740 0.2500000000000000	-0.254875
N	0.4508779402345292 0.3787652222633506 0.2500000000000000	-0.253322
	  	
