#======================================================================

# CRYSTAL DATA

#----------------------------------------------------------------------

data_VESTA_phase_1


_pd_phase_name                         ZrFSIX_13_Zn_i
_cell_length_a                         15.41668
_cell_length_b                         15.40718
_cell_length_c                         8.21645
_cell_angle_alpha                      90.07748
_cell_angle_beta                       89.76593
_cell_angle_gamma                      89.73306
_symmetry_space_group_name_H-M         P 1
_symmetry_Int_Tables_number            1

loop_
_symmetry_equiv_pos_as_xyz
   x, y, z

loop_
   _atom_site_label
   _atom_site_fract_x
   _atom_site_fract_y
   _atom_site_fract_z
   _atom_site_charge
C	0.5414975751681145 0.6866901495533100 0.8770442559482068	0.108691
C	0.5450216057264839 0.7769591426251751 0.8763062487274518	-0.146800
C	0.4615049948231158 0.3164436329162094 0.8838262753801737	0.106376
C	0.4588890128274745 0.2262059612791946 0.8831834864419630	-0.140600
C	0.8160079268394570 0.9713556546463691 0.3734326454061481	0.109840
C	0.7259732888027791 0.9698624531289266 0.3671848604778065	-0.134641
C	0.3154663379771800 0.5428543270229149 0.8750579133236490	0.105244
C	0.2252154523701803 0.5467041323004704 0.8733120637034015	-0.146034
C	0.1863816727407258 0.9712802644225463 0.3616041297290248	0.104158
C	0.2765203212523512 0.9704188953204481 0.3593557891855868	-0.133447
C	0.6857851394132261 0.4613382431673488 0.8897084358565629	0.107358
C	0.7759130145028937 0.4590100647741666 0.8869391010032082	-0.138025
C	0.4546105380624428 0.6866890134175916 0.1085962884064234	0.107804
C	0.4522540360237292 0.7768481541572463 0.1131906843801169	-0.136233
C	0.5410043609215743 0.3181898199075736 0.1234757367024824	0.104537
C	0.5441151695645702 0.2279023105098160 0.1283190100394849	-0.146632
C	0.1832774846748841 0.0227807848718634 0.6271957652133495	0.110131
C	0.2732366423466088 0.0235193416240856 0.6357938991714974	-0.135934
C	0.6840197772708400 0.5446382581051675 0.1253686321892963	0.108228
C	0.7742586005033454 0.5481351263435680 0.1281361238852031	-0.144296
C	0.8143556797403817 0.0288522317425978 0.6346839866469174	0.104179
C	0.7242158119951703 0.0299040863247939 0.6386981703533495	-0.133726
C	0.3148277681967982 0.4580322216919918 0.1086452858896570	0.106789
C	0.2246792496862768 0.4558593830300317 0.1120066305189384	-0.138665
C	0.9654453438018734 0.8139398219446496 0.6235584859576855	0.109184
C	0.9644914713440446 0.7238136887968668 0.6306225614121029	-0.134408
C	0.9812211947058975 0.1831331293052617 0.6390276556548771	0.106102
C	0.9795868462061096 0.2732634142571542 0.6426540209058585	-0.135248
C	0.0228754324519839 0.8123053450110246 0.3619791666835022	0.104779
C	0.0244257402839758 0.7221605461755006 0.3587339364754957	-0.133351
C	0.0310760849736182 0.1817603574925589 0.3720141787128691	0.111505
C	0.0313047017557180 0.2718746423475489 0.3649163584039450	-0.136774
C	0.0044016398839482 0.3187518184833959 0.5026344111912161	0.044566
C	0.0017221429528045 0.4138259627311039 0.5004519825558947	0.257319
C	0.4990751178289074 0.8229837424864269 0.9957568713826689	0.060933
C	0.5000087508202381 0.9187023374763695 0.0003652689290561	0.246920
C	0.9951457113959591 0.6767255728325287 0.4958685841154050	0.040125
C	0.9969953991389398 0.5815085723102803 0.4977253322913894	0.249552
C	0.5015425887767404 0.1809757711752219 0.0070173111002100	0.060488
C	0.5011325581756056 0.0852206165334155 0.0082157201433175	0.249505
C	0.6788716254421701 0.9995607980277360 0.5027052409015864	0.039995
C	0.5836962041061160 0.9977092020024936 0.5031853331650449	0.250101
C	0.1789134327545307 0.5018770420623048 0.9930726468914240	0.058747
C	0.0832544759899010 0.5027699257988646 0.9958630089496286	0.249047
C	0.3210557270659865 0.9966907496815900 0.4991724592633999	0.044060
C	0.4160954695426252 0.9961678666787193 0.5021480578262376	0.256084
C	0.8211317097878191 0.5039019740358257 0.0076645520397189	0.057554
C	0.9168460420595101 0.5038411000474211 0.0054623332813576	0.249521
H	0.5739325104561058 0.6486574421869749 0.7823900444223709	0.100294
H	0.5821669405687537 0.8103373654903272 0.7824895722900304	0.126908
H	0.4318869414444386 0.3538664712969163 0.7856778864715082	0.102222
H	0.4261637136442716 0.1915011242384118 0.7856699568155100	0.121879
H	0.8545565333505623 0.9485080625464380 0.2703373658043866	0.094628
H	0.6936443012385159 0.9461132591824665 0.2583606683714409	0.124433
H	0.3535900806106924 0.5742949422953324 0.7797145408517893	0.102432
H	0.1922060289459120 0.5832301024050576 0.7782673511500036	0.127413
H	0.1502551688021330 0.9513309496949288 0.2541020141539526	0.095268
H	0.3108928902331276 0.9505041783113247 0.2493920219162848	0.118211
H	0.6481074468380983 0.4300885889982249 0.7943327832353962	0.100355
H	0.8106269903843132 0.4250844375972074 0.7901168074866755	0.121155
H	0.4219614784291805 0.6482775136144291 0.2016357393209861	0.100515
H	0.4171929813182355 0.8107990469181595 0.2094778449137273	0.120070
H	0.5706516404669320 0.3568283508320285 0.2198545298082709	0.102696
H	0.5782009379974865 0.1953907106593454 0.2271253397553903	0.126802
H	0.1442363905200568 0.0436093429108651 0.7311089674044221	0.094591
H	0.3048194588101427 0.0438143067487689 0.7478410310367219	0.123016
H	0.6454183203252575 0.5756578347205236 0.2209226833721724	0.099398
H	0.8068477965218159 0.5837804304794745 0.2246054781373626	0.126809
H	0.8510361418872882 0.0508846839477199 0.7400824827630443	0.095390
H	0.6904251556065598 0.0530429776102247 0.7470097628544927	0.122793
H	0.3528459248572801 0.4261281933893370 0.2032528432961337	0.100163
H	0.1904116603383300 0.4213549064844995 0.2081805787116654	0.120366
H	0.9426827391366737 0.8524755972395441 0.7267336742417289	0.096949
H	0.9411316386493103 0.6914583236388787 0.7400667887256795	0.123396
H	0.9621466008274411 0.1462857919537264 0.7463986910913440	0.092307
H	0.9597633153409301 0.3068814020333773 0.7533750122833727	0.122274
H	0.0449488292891072 0.8489510536767180 0.2563323783919787	0.093609
H	0.0478566187084437 0.6885111190726112 0.2505700904257335	0.121807
H	0.0512456024648001 0.1432908350445500 0.2669333668746847	0.096651
H	0.0508003687851162 0.3044133152489642 0.2530307465266851	0.122794
N	0.9526077025239527 0.5399986314914381 0.6165373400345189	-0.133330
N	0.4230985923862849 0.0456812105342878 0.0088546412643695	-0.147126
N	0.5414639798157648 0.0413607202570469 0.6227667186213782	-0.133250
N	0.9570593411896925 0.4257763248733942 0.0026379069261589	-0.147151
N	0.0429901176885448 0.5406553591312750 0.3794479585108452	-0.133225
N	0.5785708313079853 0.0439370791870929 0.0099561467542694	-0.147121
N	0.9573136255169199 0.5813730101780685 0.0037228939664088	-0.146965
N	0.5437002906669662 0.9507123030630426 0.3865007165720130	-0.132289
N	0.0462207112468531 0.4553512946863613 0.3819766046787972	-0.131586
N	0.5780192218159296 0.9582139075587951 0.0015059953783808	-0.145762
N	0.4583953939524020 0.9494026463452202 0.3869329181579653	-0.130850
N	0.0429748108854568 0.5807922865648201 0.9947793593669141	-0.145632
N	0.9542376958348494 0.4545843672402444 0.6166004779923689	-0.133130
N	0.4226114121520618 0.9598895266757423 0.0085271071034460	-0.144291
N	0.0428023382638654 0.4252444587362147 0.0010830434235537	-0.146078
N	0.4561361682112767 0.0411765483761285 0.6214045289509138	-0.135318
N	0.0057293381465693 0.1379932701501805 0.5058803436102696	-0.220356
N	0.4978562372800567 0.6423540649528681 0.9920955396853274	-0.226575
N	0.9946248164804542 0.8576206242161296 0.4923319589485478	-0.219805
N	0.5010606478388050 0.3615752172797488 0.0027163704478500	-0.228936
N	0.8596620782911302 0.0002738318630009 0.5044846144702103	-0.220213
N	0.3594036511349758 0.5001318687230061 0.9917094266009132	-0.227725
N	0.1403860322902312 0.9966610568675492 0.4932387487213281	-0.218359
N	0.6405581798094925 0.5026970001518828 0.0074090196423817	-0.226463
Zn	0.0000718978959183 0.9977743229517531 0.4987546199314543	0.743123
Zn	0.4999541477410495 0.5020045099668735 0.9986440221116093	0.746449
Zr	-0.0005537334627002 0.9961073453083646 0.9986894849817233	2.456413
Zr	0.5001003557199929 0.5033096593380624 0.4986385359268820	2.476987
F	0.9933700093778951 0.0047112502224375 0.2495989089635802	-0.609357
F	0.5086756697419060 0.4967347584973908 0.7501225367444686	-0.615791
F	0.0062282650165647 0.9890581988534207 0.7477553778115990	-0.608786
F	0.4915741227433381 0.5087770372239682 0.2470544694889648	-0.616280
F	0.0932529080855013 0.0884393551987725 0.9964569089002957	-0.669241
F	0.5919445616721050 0.5981849931024843 0.4969544961147073	-0.685516
F	0.9059721822158850 0.9036023293526066 0.0000899022553499	-0.669244
F	0.4093176984175260 0.4077744496792237 0.5040254470405252	-0.686766
F	0.9075773097707207 0.0904245568207683 0.9683899674605964	-0.661619
F	0.4053171823586547 0.5953915173540099 0.5199113967804321	-0.685063
F	0.0921572375357047 0.9028921468672033 0.0300379074722883	-0.661116
F	0.5955570559664691 0.4120666971140863 0.4745055154676780	-0.684857
	  	
