#======================================================================

# CRYSTAL DATA

#----------------------------------------------------------------------

data_VESTA_phase_1


_pd_phase_name                         ZrFSIX_7_Co
_cell_length_a                         18.73420
_cell_length_b                         18.73420
_cell_length_c                         8.52525
_cell_angle_alpha                      90
_cell_angle_beta                       90
_cell_angle_gamma                      90
_symmetry_space_group_name_H-M         P 1
_symmetry_Int_Tables_number            1

loop_
_symmetry_equiv_pos_as_xyz
   x, y, z

loop_
   _atom_site_label
   _atom_site_fract_x
   _atom_site_fract_y
   _atom_site_fract_z
   _atom_site_charge
C	0.6673365253609969 0.8681233010684459 0.6914150511557147	0.093116
C	0.6150089107505704 0.9205765397158981 0.6949401709268589	-0.166358
C	0.5821941470962140 0.8868241936297431 0.4337517466571421	-0.165381
C	0.6344226124956218 0.8346138066473993 0.4393580581793279	0.089662
C	0.8326634746390031 0.6318766989315541 0.6914150511557147	0.093136
C	0.8849911392494266 0.5794235112841025 0.6949401709268589	-0.166365
C	0.9178057519037883 0.6131758573702505 0.4337517466571421	-0.165344
C	0.8655773875043782 0.6653861933526007 0.4393580581793279	0.089654
C	0.6318766989315541 0.6673365253609969 0.6914150511557147	0.093135
C	0.5794235112841025 0.6150089107505704 0.6949401709268589	-0.166363
C	0.6131758573702505 0.5821941470962140 0.4337517466571421	-0.165343
C	0.6653861933526007 0.6344226124956218 0.4393580581793279	0.089654
C	0.8681233010684459 0.8326634746390031 0.6914150511557147	0.093115
C	0.9205765397158981 0.8849911392494266 0.6949401709268589	-0.166357
C	0.8868241936297431 0.9178057519037883 0.4337517466571421	-0.165379
C	0.8346138066473993 0.8655773875043782 0.4393580581793279	0.089661
C	0.3326634496390048 0.3681232510684418 0.3085849788442876	0.093116
C	0.3849910892494292 0.4205765397158984 0.3050598590731434	-0.166359
C	0.4178058529037861 0.3868241426297492 0.5662482533428578	-0.165381
C	0.3655773365043848 0.3346138066473994 0.5606419718206749	0.089662
C	0.1673365503609952 0.1318767359315605 0.3085849788442876	0.093116
C	0.1150089107505708 0.0794234602841015 0.3050598590731434	-0.166359
C	0.0821941280962086 0.1131758573702506 0.5662482533428578	-0.165381
C	0.1344226634956152 0.1653861813525995 0.5606419718206747	0.089662
C	0.3681232510684418 0.1673365503609952 0.3085849788442876	0.093115
C	0.4205765397158984 0.1150089107505708 0.3050598590731434	-0.166357
C	0.3868241426297492 0.0821941280962086 0.5662482533428578	-0.165379
C	0.3346138066473994 0.1344226634956152 0.5606419718206748	0.089662
C	0.1318767359315605 0.3326634496390048 0.3085849788442876	0.093115
C	0.0794234602841015 0.3849910892494292 0.3050598590731434	-0.166357
C	0.1131758573702506 0.4178058529037861 0.5662482533428578	-0.165379
C	0.1653861813525995 0.3655773365043848 0.5606419718206748	0.089662
C	0.4318836510053491 0.0711850665615896 0.4365528227156086	0.138364
C	0.4874791300923463 0.0168632138792387 0.4351849728715215	-0.121414
C	0.0681163489946509 0.4288149264384134 0.4365528227156086	0.138364
C	0.0125208379076511 0.4831367221207630 0.4351849728715215	-0.121414
C	0.4288149264384134 0.4318836510053491 0.4365528227156086	0.138364
C	0.4831367221207630 0.4874791300923463 0.4351849728715215	-0.121414
C	0.0711850665615896 0.0681163489946509 0.4365528227156086	0.138364
C	0.0168632138792387 0.0125208379076511 0.4351849728715215	-0.121414
C	0.5681163489946506 0.5711850735615865 0.5634471772843918	0.138348
C	0.5125209209076472 0.5168632278792329 0.5648150561284777	-0.121410
C	0.9318836010053524 0.9288148764384093 0.5634471772843918	0.138364
C	0.9874791300923463 0.9831368231207678 0.5648150561284777	-0.121408
C	0.5711850735615865 0.9318836010053524 0.5634471772843918	0.138364
C	0.5168632278792329 0.9874791300923463 0.5648150561284777	-0.121408
C	0.9288148764384093 0.5681163489946506 0.5634471772843918	0.138348
C	0.9831368231207678 0.5125209209076472 0.5648150561284777	-0.121410
H	0.7016601314913323 0.8587896430166621 0.7920444272266659	0.099034
H	0.6090693233698264 0.9527659405258836 0.8007600122504579	0.123352
H	0.5495398106408748 0.8908975311834200 0.3284110816926910	0.123545
H	0.6435360329998954 0.7994998913426274 0.3399673198465078	0.099194
H	0.7983398685086677 0.6412103569833379 0.7920444272266659	0.099032
H	0.8909306766301736 0.5472341104741171 0.8007600122504579	0.123349
H	0.9504602403591259 0.6091025198165807 0.3284110816926910	0.123527
H	0.8564639670001046 0.7005001086573726 0.3399673198465078	0.099195
H	0.6412103569833379 0.7016601314913323 0.7920444272266659	0.099032
H	0.5472341104741171 0.6090693233698264 0.8007600122504579	0.123350
H	0.6091025198165807 0.5495398106408748 0.3284110816926910	0.123529
H	0.7005001086573726 0.6435360329998954 0.3399673198465078	0.099195
H	0.8587896430166621 0.7983398685086677 0.7920444272266659	0.099034
H	0.9527659405258836 0.8909306766301736 0.8007600122504579	0.123353
H	0.8908975311834200 0.9504602403591259 0.3284110816926910	0.123547
H	0.7994998913426274 0.8564639670001046 0.3399673198465078	0.099194
H	0.2983398945086701 0.3587895670166627 0.2079555577733364	0.099034
H	0.3909306006301671 0.4527658895258829 0.1992399437495384	0.123354
H	0.4504602403591256 0.3908975311834199 0.6715888883073133	0.123546
H	0.3564639920001104 0.2994999173426296 0.6600326801534918	0.099194
H	0.2016601184913274 0.1412104589833394 0.2079555577733364	0.099034
H	0.1090693743698271 0.0472341264741184 0.1992399437495384	0.123354
H	0.0495397536408739 0.1091024948165822 0.6715888883073133	0.123546
H	0.1435360329998954 0.2005000706573694 0.6600326801534918	0.099194
H	0.3587895670166627 0.2016601184913274 0.2079555577733364	0.099034
H	0.4527658895258829 0.1090693743698271 0.1992399437495384	0.123356
H	0.3908975311834199 0.0495397536408739 0.6715888883073133	0.123547
H	0.2994999173426296 0.1435360329998954 0.6600326801534918	0.099194
H	0.1412104589833394 0.2983398945086701 0.2079555577733364	0.099034
H	0.0472341264741184 0.3909306006301671 0.1992399437495384	0.123356
H	0.1091024948165822 0.4504602403591256 0.6715888883073133	0.123548
H	0.2005000706573694 0.3564639920001104 0.6600326801534918	0.099194
H	0.5072549794809817 0.0011714212681151 0.3194270005412878	0.107254
H	0.9927450715190189 0.4988285507318825 0.3194270005412878	0.107253
H	0.4988285507318825 0.5072549794809817 0.3194270005412878	0.107253
H	0.0011714212681151 0.9927450715190189 0.3194270005412878	0.107254
H	0.4927450205190185 0.5011713992681204 0.6805730294587076	0.107254
H	0.0072549704809844 0.9988285507318826 0.6805730294587076	0.107253
H	0.5011713992681204 0.0072549704809844 0.6805730294587076	0.107253
H	0.9988285507318826 0.4927450205190185 0.6805730294587076	0.107254
Co	0.2500000000000000 0.2500000000000000 0.4334667513925579	0.588437
Co	0.7500000000000000 0.7500000000000000 0.5665332486074419	0.588438
Zr	0.2500000000000000 0.2500000000000000 0.9349579641120658	2.455455
Zr	0.7500000000000000 0.7500000000000000 0.0650420208879364	2.455455
F	0.2500000000000000 0.2500000000000000 0.1776469209910241	-0.617803
F	0.2500000000000000 0.2500000000000000 0.6920565608533951	-0.618654
F	0.7500000000000000 0.7500000000000000 0.8223531090089784	-0.617804
F	0.7500000000000000 0.7500000000000000 0.3079434391466049	-0.618654
F	0.3280555560327877 0.3260709360599174 0.9353463906883713	-0.683876
F	0.1719444689672108 0.1739290889400810 0.9353463906883713	-0.683876
F	0.1739290889400810 0.3280555560327877 0.9353463906883713	-0.683876
F	0.3260709360599174 0.1719444689672108 0.9353463906883713	-0.683876
F	0.6719444689672104 0.8260709360599179 0.0646536093116286	-0.683876
F	0.8280555310327896 0.6739290639400821 0.0646536093116286	-0.683876
F	0.8260709360599179 0.8280555310327896 0.0646536093116286	-0.683876
F	0.6739290639400821 0.6719444689672104 0.0646536093116286	-0.683876
N	0.3252483456913199 0.1770201563098333 0.4341325596002605	-0.188357
N	0.1747516793086786 0.3229798686901653 0.4341325596002605	-0.188357
N	0.3229798686901653 0.3252483456913199 0.4341325596002605	-0.188357
N	0.1770201563098333 0.1747516793086786 0.4341325596002605	-0.188357
N	0.6747516543086804 0.6770201313098350 0.5658674403997399	-0.188360
N	0.8252483456913196 0.8229798686901650 0.5658674403997399	-0.188357
N	0.6770201313098350 0.8252483456913196 0.5658674403997399	-0.188357
N	0.8229798686901650 0.6747516543086804 0.5658674403997399	-0.188360
	  	
