#======================================================================

# CRYSTAL DATA

#----------------------------------------------------------------------

data_VESTA_phase_1


_pd_phase_name                         ZrFSIX_13_Cu_i
_cell_length_a                         15.18009
_cell_length_b                         15.17562
_cell_length_c                         8.39522
_cell_angle_alpha                      90.33969
_cell_angle_beta                       89.36548
_cell_angle_gamma                      89.61623
_symmetry_space_group_name_H-M         P 1
_symmetry_Int_Tables_number            1

loop_
_symmetry_equiv_pos_as_xyz
   x, y, z

loop_
   _atom_site_label
   _atom_site_fract_x
   _atom_site_fract_y
   _atom_site_fract_z
   _atom_site_charge
C	0.5413263352374804 0.6812010444935941 0.8782781037907839	0.108198
C	0.5449342889265026 0.7728290656059750 0.8778151447284439	-0.141967
C	0.4622017898176652 0.3212981428345560 0.8844342086529383	0.106082
C	0.4596479469661455 0.2296792151925874 0.8837040795086393	-0.135754
C	0.8208977372630734 0.9707455094801355 0.3751544975013595	0.110289
C	0.7295835375823622 0.9695755434522121 0.3699509415933994	-0.130462
C	0.3211643458739668 0.5421710574490204 0.8762702156653698	0.105619
C	0.2295070750528372 0.5459790414995794 0.8749240419532263	-0.140436
C	0.1817376402877407 0.9727871207840554 0.3634353113933499	0.102992
C	0.2733157407087636 0.9714091111051575 0.3608480717364010	-0.129251
C	0.6814782827510650 0.4613938858592883 0.8899247643408316	0.108558
C	0.7730232164556291 0.4594677949745440 0.8875311045843024	-0.137527
C	0.4552300771405694 0.6821902888932247 0.1093319081211594	0.108173
C	0.4529752500529525 0.7737483808655875 0.1134940885203897	-0.133628
C	0.5406785452073168 0.3235618648142840 0.1214334245685113	0.103774
C	0.5437272968332101 0.2319074710328145 0.1254207139328470	-0.140845
C	0.1781981521193158 0.0229276440063669 0.6261754245097209	0.111233
C	0.2694504339340028 0.0232489845769988 0.6333630546799612	-0.132012
C	0.6780872680116340 0.5442245179075221 0.1241674597185936	0.108498
C	0.7697157332964195 0.5480288267609641 0.1266547830166576	-0.140882
C	0.8187386528086092 0.0270347426901449 0.6338165387220378	0.102293
C	0.7271769858582351 0.0282524460163774 0.6380589392844114	-0.129280
C	0.3196057504901536 0.4585977062574515 0.1079990739055896	0.108140
C	0.2280742053325739 0.4564791923583822 0.1110075697366031	-0.136139
C	0.9658956767728555 0.8188335086549713 0.6220257384850884	0.109174
C	0.9648493263405011 0.7274337539446917 0.6277363708551196	-0.131454
C	0.9819444223027800 0.1786966083023436 0.6372308190185336	0.102692
C	0.9808058090695494 0.2702272348650471 0.6413115216624796	-0.129541
C	0.0221667116183727 0.8168366809098196 0.3629053535491160	0.103373
C	0.0235536308055425 0.7253125948845197 0.3592276310601247	-0.129882
C	0.0306490229972957 0.1769281713142728 0.3731927649197473	0.110467
C	0.0311799745428928 0.2683136216566590 0.3674014434320033	-0.131832
C	0.0049402439233028 0.3160457557753789 0.5034416800519511	0.044517
C	0.0022651221038710 0.4126114538226745 0.5012369014778292	0.255845
C	0.4995453168162632 0.8201680964800910 0.9966803566696318	0.061591
C	0.5005041301805931 0.9174932351154864 0.0011670510236286	0.248071
C	0.9950042617694187 0.6795315451848071 0.4944466420799721	0.040938
C	0.9970698839579843 0.5828405898230425 0.4964251516694462	0.251293
C	0.5018142728074779 0.1839603875839232 0.0057067879290519	0.060573
C	0.5015106143859485 0.0865661161842021 0.0072758341831812	0.248622
C	0.6815813593657061 0.9988899914197931 0.5038428594766352	0.040614
C	0.5849303509988671 0.9973720294536745 0.5039310564556888	0.249615
C	0.1819489361615882 0.5019735481799631 0.9934630859059672	0.060158
C	0.0846392495114177 0.5030266590931014 0.9962419913709156	0.248042
C	0.3181560365066138 0.9966338409617527 0.4985510369733612	0.044189
C	0.4147102401165638 0.9959136629861014 0.5015317609890017	0.256116
C	0.8182059335417876 0.5042688145750901 0.0073090411753990	0.061317
C	0.9155794491567619 0.5043341350967323 0.0052353066035873	0.246021
H	0.5729496920243052 0.6420816171156124 0.7840528666239023	0.104455
H	0.5817128237197817 0.8064541753171877 0.7844067775167480	0.128446
H	0.4333495429923145 0.3593088808606993 0.7879637509986726	0.106106
H	0.4273076375928875 0.1943030851841256 0.7876695175508605	0.124472
H	0.8602615495191227 0.9484050745381789 0.2733376664257397	0.101545
H	0.6966579511110241 0.9463949008281951 0.2632319250821873	0.126464
H	0.3601380522652511 0.5726922672970328 0.7816372792276186	0.105834
H	0.1961728863392307 0.5818614519349184 0.7809563058162432	0.129510
H	0.1452778736066900 0.9541570910513008 0.2573776742156355	0.099239
H	0.3086201178077320 0.9517405150657900 0.2526964379040584	0.120592
H	0.6435415579589913 0.4307760594730643 0.7953262058073357	0.106455
H	0.8088430846810361 0.4257905966787997 0.7916764469362723	0.123164
H	0.4233876491161785 0.6432671891116035 0.2018749555876583	0.106578
H	0.4181469463680739 0.8085779094255959 0.2091132766907376	0.122089
H	0.5696156068183417 0.3628771071184412 0.2166860525535110	0.107017
H	0.5771244796952449 0.1988458968075484 0.2226153691144001	0.128776
H	0.1383930365511147 0.0432873707955039 0.7288196010423188	0.100500
H	0.3017829645124473 0.0429177103319120 0.7429316013264320	0.125219
H	0.6382274861737715 0.5747065128643311 0.2187806177470002	0.104696
H	0.8022913218495229 0.5834769892483513 0.2222599088470070	0.128880
H	0.8557297521597707 0.0480848697599981 0.7377785417347474	0.099252
H	0.6923905656362310 0.0508362990117130 0.7448782145362759	0.124811
H	0.3580624049359943 0.4276478797338706 0.2014541958213235	0.104891
H	0.1929573601717152 0.4224269501380917 0.2059641761886426	0.122615
H	0.9438338043948947 0.8582385989018830 0.7238673569241190	0.103432
H	0.9420115679707906 0.6943872628722455 0.7350885884160268	0.125353
H	0.9636060748944943 0.1414974114289470 0.7430591131832919	0.096540
H	0.9615850969020915 0.3047962630192575 0.7503096440207992	0.124295
H	0.0433188758331727 0.8538898501977156 0.2585910718848708	0.097311
H	0.0465562311887861 0.6907060034819591 0.2526486293324402	0.123997
H	0.0500904390927629 0.1376080401373178 0.2695540786749124	0.102318
H	0.0501151718500958 0.3014819429520264 0.2577231840199678	0.124703
N	0.9551192198356763 0.5413847043707170 0.6174337944171920	-0.134295
N	0.4222381107940091 0.0465493421947817 0.0091612843796617	-0.145494
N	0.5413568929076085 0.0388770347178144 0.6245135195343228	-0.134869
N	0.9564866577920083 0.4249467688054266 0.0026666460564817	-0.144079
N	0.0409983640223232 0.5406577867306663 0.3769712490183754	-0.132843
N	0.5802355157458533 0.0446405348954749 0.0082780028037691	-0.145921
N	0.9565896985156580 0.5830232605261884 0.0035908997441517	-0.143611
N	0.5449497549255363 0.9529323228171575 0.3848964143862155	-0.130651
N	0.0445834740462147 0.4540817660496265 0.3807956616379243	-0.131474
N	0.5797215924082655 0.9575074806125702 0.0010283504798710	-0.144436
N	0.4583195910618326 0.9514537783601830 0.3846171363781996	-0.131344
N	0.0437007144588879 0.5823056458632780 0.9951243162495963	-0.144617
N	0.9567664493192225 0.4546867624629140 0.6187664134565283	-0.132029
N	0.4217927348234302 0.9594206518647822 0.0098852728516921	-0.143013
N	0.0435993642191938 0.4243248379222905 0.0015876698048618	-0.145161
N	0.4547022541905273 0.0388572389442205 0.6222139814612351	-0.133569
N	0.0052458362752126 0.1330707116980401 0.5050560734505479	-0.212855
N	0.4982039839207579 0.6369138317929707 0.9934476194060519	-0.223668
N	0.9949753378599269 0.8626232412967666 0.4925004038736724	-0.212684
N	0.5011699944420915 0.3670712932385145 0.0021004704081639	-0.225954
N	0.8645835920785053 -0.0007586879395334 0.5044404387669726	-0.214470
N	0.3650823243934049 0.5001379540411980 0.9921674642987297	-0.224998
N	0.1352219870857843 0.9973169100948188 0.4941487198602750	-0.214080
N	0.6350297589608408 0.5024229874801174 0.0067295244884088	-0.224886
Cu	-0.0001209958868760 0.9978833968194861 0.4987130296781883	0.723267
Cu	0.4999402722127016 0.5018867726631333 0.9985553447473673	0.734457
Zr	-0.0007545341937132 0.9969928181743282 0.9986109183049641	2.458017
Zr	0.4990266791288576 0.5026781027822379 0.4991349172494227	2.480441
F	0.9907236315469194 0.0079055923062158 0.2423401326760142	-0.649397
F	0.5116220347961623 0.4958242355118525 0.7424938253511870	-0.657192
F	0.0074712780612335 0.9858766126109254 0.7549642279815439	-0.648952
F	0.4870963582135722 0.5094489365598953 0.2554505002711843	-0.659224
F	0.0950464891215502 0.0904809083790656 0.9938451458618491	-0.673291
F	0.5917939006646262 0.6001633892622144 0.4924879545766009	-0.691223
F	0.9036241565370031 0.9033916818412955 0.0017012217353405	-0.674181
F	0.4071473885580885 0.4049481202609859 0.5090881158428300	-0.691747
F	0.9066370969434147 0.0931604208228220 0.9628009974344313	-0.663919
F	0.4021787325431810 0.5958580874442211 0.5286401227231970	-0.688228
F	0.0936866207932333 0.9026483983504148 0.0360424691519029	-0.664609
F	0.5962219223812227 0.4099300075077329 0.4679668832663533	-0.688954
	  	
