#======================================================================

# CRYSTAL DATA

#----------------------------------------------------------------------

data_VESTA_phase_1


_pd_phase_name                         ZrFSIX_14_Cu_i
_cell_length_a                         13.11816
_cell_length_b                         13.10585
_cell_length_c                         8.53350
_cell_angle_alpha                      90.01157
_cell_angle_beta                       89.97209
_cell_angle_gamma                      88.94999
_symmetry_space_group_name_H-M         P 1
_symmetry_Int_Tables_number            1

loop_
_symmetry_equiv_pos_as_xyz
   x, y, z

loop_
   _atom_site_label
   _atom_site_fract_x
   _atom_site_fract_y
   _atom_site_fract_z
   _atom_site_charge
C	0.5698468356647526 0.2647100590787331 0.3580590933257811	-0.173960
C	0.4641987225531803 0.2699520033223626 0.3621905983026624	0.109400
C	0.9424395109897926 0.2876065187375842 0.4116292984595029	-0.157924
C	0.0478494022051035 0.2810427519431407 0.3972956236969225	0.117565
C	0.2626816434585098 0.5697223388329727 0.3607628541582591	-0.175980
C	0.2678976175412530 0.4639345434923555 0.3648796850931835	0.111338
C	0.2957371821540055 0.9425008479274500 0.4076587453877146	-0.157572
C	0.2877320979802493 0.0479662901469891 0.3941944858132984	0.115086
C	0.9302914906495953 0.2378123531754225 0.1399898157612507	-0.175106
C	0.0359578323246383 0.2330350805765361 0.1355816829644961	0.110073
C	0.5576146243101513 0.2075659211664000 0.0898825413672130	-0.156991
C	0.4521813704610963 0.2146938326498295 0.1038682299764490	0.116726
C	0.2088784237315010 0.5575365760821430 0.0909853831969753	-0.157984
C	0.2163804494141363 0.4520937038830360 0.1047393890888406	0.114761
C	0.2347995873767012 0.9301846387901035 0.1415195563266325	-0.174106
C	0.2292121743608380 0.0359533260378201 0.1376025514182957	0.111286
C	0.4305413349476537 0.7361597459551106 0.6424451440501446	-0.172835
C	0.5361196642664504 0.7337446480857921 0.6367947770203596	0.109091
C	0.0572324552238402 0.7293127062936869 0.5810545928167238	-0.153220
C	0.9518322509845502 0.7305771194303953 0.5974021495054500	0.120472
C	0.7373017074864588 0.4303751971503210 0.6413558215562450	-0.172457
C	0.7343767581691140 0.5360898384348435 0.6361348414868085	0.108738
C	0.7170713768142426 0.0569053961330805 0.5845141654960967	-0.151649
C	0.7212469996595350 0.9513579878570538 0.5999233511058548	0.117713
C	0.0696838913668037 0.7613107492779477 0.8589973776900965	-0.171564
C	0.9641015082993284 0.7628166480479036 0.8647736101544421	0.109804
C	0.4431138352814484 0.7763240051754207 0.9178609888726590	-0.152707
C	0.5485301790018113 0.7742624289818498 0.9014594101533266	0.119760
C	0.7774208901867505 0.4427633376679601 0.9167973481676376	-0.154582
C	0.7740327896674886 0.5482939756780768 0.9011767032377165	0.119903
C	0.7651459332364398 0.0693658576936314 0.8569041696482419	-0.172387
C	0.7689378280467132 0.9636653170077720 0.8618033409097324	0.110155
C	0.6178436370649726 0.2343656854620513 0.2180361802400320	0.195342
C	0.8822581050440168 0.2641519382888296 0.2818140493259913	0.195767
C	0.2340402833641365 0.6177475109982302 0.2200569336804348	0.195832
C	0.2672651529866455 0.8822222689652179 0.2803637509135329	0.194343
C	0.3827876472496984 0.7571906689056969 0.7866122742106690	0.195542
C	0.1175028846891195 0.7448336886443198 0.7135834773557957	0.194316
C	0.7584097230143713 0.3824777413376458 0.7852851988698321	0.196544
C	0.7396127471324235 0.1172394248727870 0.7145744008996131	0.192381
H	0.6142647235433455 0.2809640423621100 0.4624930492098024	0.109587
H	0.4237791430521227 0.2924329962289744 0.4685628824553803	0.100295
H	0.9079618489747231 0.3100507609556947 0.5226654221606932	0.131078
H	0.0966862320612291 0.2992335944665752 0.4958858562425694	0.091380
H	0.2774821686173296 0.6143474415096005 0.4656178823978427	0.112082
H	0.2888873822543006 0.4233968996220223 0.4717859413943523	0.099508
H	0.3229555754287500 0.9079572922434594 0.5161205215967856	0.130979
H	0.3091305941765847 0.0969229804325893 0.4912184687541834	0.091900
H	0.8858555880550167 0.2242982035390722 0.0345431673437469	0.109787
H	0.0764198294350423 0.2135727478295822 0.0279226321351147	0.100149
H	0.5921239867032357 0.1819223595106206 0.9804617086784559	0.131127
H	0.4032937026544993 0.1939480697586055 0.0065176407231494	0.092099
H	0.1847182228826558 0.5920804238827869 0.9808666893067762	0.130190
H	0.1973597574866793 0.4032323661530442 0.0064307661816676	0.092243
H	0.2172616332084308 0.8855358113968237 0.0377875955551366	0.111437
H	0.2053408762426629 0.0764120552541418 0.0320072792057805	0.099824
H	0.3863487975144951 0.7239455873413546 0.5363485952467786	0.104972
H	0.5765677046562458 0.7176133380415635 0.5279855903435554	0.100720
H	0.0915792281793770 0.7162045617601849 0.4665778171821655	0.131297
H	0.9031113747587339 0.7167468099127087 0.4972031360113133	0.088343
H	0.7259863393459272 0.3860799775965878 0.5350129568343229	0.105981
H	0.7185117036911111 0.5766731173274284 0.5273826195952352	0.101357
H	0.6963615181835739 0.0913503630620231 0.4727371383195805	0.130512
H	0.7024082985211008 0.9025457538254074 0.5016232720815563	0.089318
H	0.1138648189646834 0.7707015145870125 0.9658686755474049	0.104137
H	0.9235935562354486 0.7753292591427901 0.9745828986849366	0.099509
H	0.4088204789388575 0.7929555870737455 0.0313197008520163	0.131044
H	0.5973369510365453 0.7911271003402686 0.0004659117606771	0.088485
H	0.7946319839368885 0.4083231182608604 0.0299226837627189	0.131248
H	0.7900386985450430 0.5970708605796754 0.0006976851212161	0.087996
H	0.7792761966694826 0.1136488194688819 0.9623535759976428	0.106968
H	0.7883503211098426 0.9231011557065818 0.9692860415686579	0.101659
N	0.7753363065374940 0.2729734068229095 0.3007852084783910	-0.102670
N	0.2774119643588007 0.7750875254802022 0.2979496830222156	-0.103853
N	0.7248383970456181 0.2250677181618560 0.1991336556674088	-0.101895
N	0.2242759211524686 0.7248109488199934 0.2023961284468196	-0.101387
N	0.2242625732256937 0.7398246978395616 0.6903356100295714	-0.100989
N	0.7319370051817566 0.2241802625771725 0.6931395593942493	-0.099026
N	0.2760061724120253 0.7628121589233907 0.8097927041174628	-0.101129
N	0.7654638872468299 0.2755805056330367 0.8068513456033066	-0.102670
N	0.4063389063850600 0.2461083272297866 0.2370374108707916	-0.216010
N	0.0937758824290896 0.2534912648289512 0.2622370747972382	-0.216073
N	0.2459962603170409 0.4061188759173553 0.2387569595585013	-0.216630
N	0.2544151830669407 0.0938315522390218 0.2621069633416678	-0.217168
N	0.5941600660071770 0.7525780597492991 0.7639849513656740	-0.214704
N	0.9060998526928095 0.7476864189287972 0.7362691919287132	-0.215056
N	0.7523690029142356 0.5940746881529264 0.7637893613843606	-0.213729
N	0.7473485431470325 0.9056519371370623 0.7355688644621379	-0.214333
F	0.3596522943462558 0.1362243002287842 0.7504762582916660	-0.673485
F	0.1414073691779227 0.3630045253616244 0.7497889504308429	-0.673334
F	0.3611071275268808 0.3557809104674871 0.7653522611224371	-0.686532
F	0.1394891367212536 0.1434462731681884 0.7342776041148951	-0.686661
F	0.6378597049874170 0.8613116976935145 0.2512424278926688	-0.670686
F	0.8611463376572733 0.6399916465156674 0.2482238865499572	-0.671214
F	0.6418686241920869 0.6419089746778963 0.2250275685012127	-0.682282
F	0.8570626060455124 0.8590869137286895 0.2748489254175929	-0.682062
F	0.2605875997976171 0.2595233918615687 0.5087182682350277	-0.645988
F	0.2397711807363321 0.2398965750471404 0.9913729856787313	-0.646324
F	0.7376231038935017 0.7373523071219407 0.4905410047529816	-0.642010
F	0.7619285488127311 0.7631208985755098 0.0092595853308239	-0.641978
Zr	0.2504495419238644 0.2494723330851267 0.7500270382228025	2.464979
Zr	0.7494176788294450 0.7505720850701897 0.2499202654354758	2.459324
Cu	0.2500662384307341 0.2499714965796559 0.2500412415069777	0.716107
Cu	0.7501095263776223 0.7498679260144295 0.7499272820912570	0.711341
	  	
