#======================================================================

# CRYSTAL DATA

#----------------------------------------------------------------------

data_VESTA_phase_1


_pd_phase_name                         ZrFSIX_16_Fe_i
_cell_length_a                         24.93721
_cell_length_b                         24.93721
_cell_length_c                         8.38865
_cell_angle_alpha                      90
_cell_angle_beta                       90
_cell_angle_gamma                      90
_symmetry_space_group_name_H-M         P 1
_symmetry_Int_Tables_number            1

loop_
_symmetry_equiv_pos_as_xyz
   x, y, z

loop_
   _atom_site_label
   _atom_site_fract_x
   _atom_site_fract_y
   _atom_site_fract_z
   _atom_site_charge
C	0.4786354724473334 0.3900108827476118 0.3767969632032512	0.099857
C	0.4780135293254427 0.3344379545531835 0.3722765524269934	-0.164016
C	0.9551413814546835 0.6139326304314225 0.9434358245424441	-0.124134
C	0.9552956313487375 0.5582329976203243 0.9442709902205864	-0.125704
C	0.5213645655526628 0.6099891552523846 0.3767969632032512	0.099857
C	0.5219864706745571 0.6655620834468123 0.3722765524269934	-0.164017
C	0.0448585425453174 0.3860673305685776 0.9434358245424441	-0.124134
C	0.0447043876512608 0.4417670403796789 0.9442709902205864	-0.125704
C	0.6099891552523846 0.4786354724473334 0.3767969632032512	0.099857
C	0.6655620834468123 0.4780135293254427 0.3722765524269934	-0.164017
C	0.3860673305685776 0.9551413814546835 0.9434358245424441	-0.124134
C	0.4417670403796789 0.9552956313487375 0.9442709902205864	-0.125704
C	0.3900108827476118 0.5213645655526628 0.3767969632032512	0.099857
C	0.3344379545531835 0.5219864706745571 0.3722765524269934	-0.164016
C	0.6139326304314225 0.0448585425453174 0.9434358245424441	-0.124134
C	0.5582329976203243 0.0447043876512608 0.9442709902205864	-0.125705
C	0.5213645655526628 0.3900108827476118 0.6232030367967486	0.099857
C	0.5219864706745571 0.3344379545531835 0.6277234155730036	-0.164017
C	0.0448585425453174 0.6139326304314225 0.0565641874575567	-0.124134
C	0.0447043876512608 0.5582329976203243 0.0557289857794115	-0.125705
C	0.4786354724473334 0.6099891552523846 0.6232030367967486	0.099857
C	0.4780135293254427 0.6655620834468123 0.6277234155730036	-0.164017
C	0.9551413814546835 0.3860673305685776 0.0565641874575567	-0.124134
C	0.9552956313487375 0.4417670403796789 0.0557289857794115	-0.125705
C	0.3900108827476118 0.4786354724473334 0.6232030367967486	0.099857
C	0.3344379545531835 0.4780135293254427 0.6277234155730036	-0.164017
C	0.6139326304314225 0.9551413814546835 0.0565641874575567	-0.124134
C	0.5582329976203243 0.9552956313487375 0.0557289857794115	-0.125705
C	0.6099891552523846 0.5213645655526628 0.6232030367967486	0.099857
C	0.6655620834468123 0.5219864706745571 0.6277234155730036	-0.164017
C	0.3860673305685776 0.0448585425453174 0.0565641874575567	-0.124134
C	0.4417670403796789 0.0447043876512608 0.0557289857794115	-0.125704
C	0.5448585805453204 0.8860672925685817 0.5565642074575514	-0.124134
C	0.5447043686512625 0.9417670403796788 0.5557289777794110	-0.125704
C	0.0213645195526659 0.1099890982523904 0.1232030367967488	0.099857
C	0.0219864686745572 0.1655620454468164 0.1277234315730051	-0.164016
C	0.4551414574546824 0.1139326784314195 0.5565642074575514	-0.124134
C	0.4552955933487411 0.0582329446203233 0.5557289777794110	-0.125704
C	0.9786354344473372 0.8900108447476154 0.1232030367967488	0.099857
C	0.9780135293254429 0.8344379545531837 0.1277234315730051	-0.164016
C	0.1139326784314195 0.5448585805453204 0.5565642074575514	-0.124134
C	0.0582329446203233 0.5447043686512625 0.5557289777794110	-0.125705
C	0.8900108447476154 0.0213645195526659 0.1232030367967488	0.099857
C	0.8344379545531837 0.0219864686745572 0.1277234315730051	-0.164016
C	0.8860672925685817 0.4551414574546824 0.5565642074575514	-0.124134
C	0.9417670403796788 0.4552955933487411 0.5557289777794110	-0.125704
C	0.1099890982523904 0.9786354344473372 0.1232030367967488	0.099857
C	0.1655620454468164 0.9780135293254429 0.1277234315730051	-0.164016
C	0.4551414574546824 0.8860672925685817 0.4434358245424443	-0.124134
C	0.4552955933487411 0.9417670403796788 0.4442710222205891	-0.125705
C	0.9786354344473372 0.1099890982523904 0.8767969952032469	0.099857
C	0.9780135293254429 0.1655620454468164 0.8722765524269938	-0.164017
C	0.5448585805453204 0.1139326784314195 0.4434358245424443	-0.124133
C	0.5447043686512625 0.0582329446203233 0.4442710222205891	-0.125705
C	0.0213645195526659 0.8900108447476154 0.8767969952032469	0.099857
C	0.0219864686745572 0.8344379545531837 0.8722765524269938	-0.164017
C	0.8860672925685817 0.5448585805453204 0.4434358245424443	-0.124134
C	0.9417670403796788 0.5447043686512625 0.4442710222205891	-0.125705
C	0.1099890982523904 0.0213645195526659 0.8767969952032469	0.099857
C	0.1655620454468164 0.0219864686745572 0.8722765524269938	-0.164017
C	0.1139326784314195 0.4551414574546824 0.4434358245424443	-0.124133
C	0.0582329446203233 0.4552955933487411 0.4442710222205891	-0.125705
C	0.8900108447476154 0.9786354344473372 0.8767969952032469	0.099857
C	0.8344379545531837 0.9780135293254429 0.8722765524269938	-0.164017
C	0.5000000000000000 0.3051706345874909 0.5000000000000000	0.176749
C	0.5000000000000000 0.2483817342962320 0.5000000000000000	-0.116918
C	0.5000000000000000 0.1994893914692031 0.5000000000000000	-0.091010
C	0.5000000000000000 0.1426593569402566 0.5000000000000000	0.123377
C	0.5000000000000000 0.0295059878630867 0.5000000000000000	0.066477
C	-0.0000000000000000 0.8051706155874861 -0.0000000000000000	0.176749
C	-0.0000000000000000 0.7483817142962301 -0.0000000000000000	-0.116917
C	-0.0000000000000000 0.6994893534692075 -0.0000000000000000	-0.091010
C	-0.0000000000000000 0.6426593189402534 -0.0000000000000000	0.123377
C	-0.0000000000000000 0.5295060018630876 -0.0000000000000000	0.066477
C	0.5000000000000000 0.6948293464125107 0.5000000000000000	0.176749
C	0.5000000000000000 0.7516183237037659 0.5000000000000000	-0.116917
C	0.5000000000000000 0.8005106085307965 0.5000000000000000	-0.091010
C	0.5000000000000000 0.8573406430597434 0.5000000000000000	0.123377
C	0.5000000000000000 0.9704939981369124 0.5000000000000000	0.066479
C	-0.0000000000000000 0.1948293654125090 -0.0000000000000000	0.176749
C	-0.0000000000000000 0.2516182657037678 -0.0000000000000000	-0.116918
C	-0.0000000000000000 0.3005105885307957 -0.0000000000000000	-0.091010
C	-0.0000000000000000 0.3573406430597436 -0.0000000000000000	0.123377
C	-0.0000000000000000 0.4704940361369152 -0.0000000000000000	0.066479
C	0.6948293464125107 0.5000000000000000 0.5000000000000000	0.176749
C	0.7516183237037659 0.5000000000000000 0.5000000000000000	-0.116917
C	0.8005106085307965 0.5000000000000000 0.5000000000000000	-0.091010
C	0.8573406430597434 0.5000000000000000 0.5000000000000000	0.123377
C	0.9704939981369124 0.5000000000000000 0.5000000000000000	0.066477
C	0.1948293654125090 -0.0000000000000000 -0.0000000000000000	0.176749
C	0.2516182657037678 -0.0000000000000000 -0.0000000000000000	-0.116918
C	0.3005105885307957 -0.0000000000000000 -0.0000000000000000	-0.091010
C	0.3573406430597436 -0.0000000000000000 -0.0000000000000000	0.123377
C	0.4704940361369152 -0.0000000000000000 -0.0000000000000000	0.066477
C	0.3051706345874909 0.5000000000000000 0.5000000000000000	0.176749
C	0.2483817342962320 0.5000000000000000 0.5000000000000000	-0.116918
C	0.1994893914692031 0.5000000000000000 0.5000000000000000	-0.091010
C	0.1426593569402566 0.5000000000000000 0.5000000000000000	0.123377
C	0.0295059878630867 0.5000000000000000 0.5000000000000000	0.066479
C	0.8051706155874861 -0.0000000000000000 -0.0000000000000000	0.176749
C	0.7483817142962301 -0.0000000000000000 -0.0000000000000000	-0.116917
C	0.6994893534692075 -0.0000000000000000 -0.0000000000000000	-0.091010
C	0.6426593189402534 -0.0000000000000000 -0.0000000000000000	0.123377
C	0.5295060018630876 -0.0000000000000000 -0.0000000000000000	0.066479
H	0.4621805776353723 0.4133267598545306 0.2782972816017361	0.094780
H	0.4607273995164731 0.3140243795469594 0.2697509891271089	0.128699
H	0.9205271507200991 0.6358375245019616 0.8980350884741970	0.112057
H	0.9208416187915910 0.5363514325371002 0.8973682784510096	0.106468
H	0.5378194223646278 0.5866732401454696 0.2782972816017361	0.094780
H	0.5392726384835301 0.6859756964530398 0.2697509891271089	0.128699
H	0.0794728302799026 0.3641624754980386 0.8980350884741970	0.112057
H	0.0791584102084080 0.4636486064628927 0.8973682784510096	0.106468
H	0.5866732401454696 0.4621805776353723 0.2782972816017361	0.094780
H	0.6859756964530398 0.4607273995164731 0.2697509891271089	0.128699
H	0.3641624754980386 0.9205271507200991 0.8980350884741970	0.112057
H	0.4636486064628927 0.9208416187915910 0.8973682784510096	0.106468
H	0.4133267598545306 0.5378194223646278 0.2782972816017361	0.094780
H	0.3140243795469594 0.5392726384835301 0.2697509891271089	0.128699
H	0.6358375245019616 0.0794728302799026 0.8980350884741970	0.112058
H	0.5363514325371002 0.0791584102084080 0.8973682784510096	0.106468
H	0.5378194223646278 0.4133267598545306 0.7217027023982623	0.094780
H	0.5392726384835301 0.3140243795469594 0.7302490108728908	0.128698
H	0.0794728302799026 0.6358375245019616 0.1019648875258007	0.112057
H	0.0791584102084080 0.5363514325371002 0.1026317215489899	0.106469
H	0.4621805776353723 0.5866732401454696 0.7217027023982623	0.094780
H	0.4607273995164731 0.6859756964530398 0.7302490108728908	0.128698
H	0.9205271507200991 0.3641624754980386 0.1019648875258007	0.112057
H	0.9208416187915910 0.4636486064628927 0.1026317215489899	0.106469
H	0.4133267598545306 0.4621805776353723 0.7217027023982623	0.094780
H	0.3140243795469594 0.4607273995164731 0.7302490108728908	0.128698
H	0.6358375245019616 0.9205271507200991 0.1019648875258007	0.112057
H	0.5363514325371002 0.9208416187915910 0.1026317215489899	0.106469
H	0.5866732401454696 0.5378194223646278 0.7217027023982623	0.094780
H	0.6859756964530398 0.5392726384835301 0.7302490108728908	0.128698
H	0.3641624754980386 0.0794728302799026 0.1019648875258007	0.112057
H	0.4636486064628927 0.0791584102084080 0.1026317215489899	0.106468
H	0.5794728492799009 0.8641624754980384 0.6019648795258004	0.112057
H	0.5791583812084090 0.9636486064628995 0.6026317535489930	0.106468
H	0.0378194323646288 0.0866732111454707 0.2217027183982641	0.094780
H	0.0392726434835270 0.1859756394530386 0.2302490428728865	0.128698
H	0.4205271887201026 0.1358375535019603 0.6019648795258004	0.112057
H	0.4208415797915914 0.0363514175371022 0.6026317535489930	0.106468
H	0.9621805776353722 0.9133268368545261 0.2217027183982641	0.094780
H	0.9607273615164699 0.8140244175469625 0.2302490428728865	0.128698
H	0.1358375535019603 0.5794728492799009 0.6019648795258004	0.112057
H	0.0363514175371022 0.5791583812084090 0.6026317535489930	0.106468
H	0.9133268368545261 0.0378194323646288 0.2217027183982641	0.094780
H	0.8140244175469625 0.0392726434835270 0.2302490428728865	0.128699
H	0.8641624754980384 0.4205271887201026 0.6019648795258004	0.112057
H	0.9636486064628995 0.4208415797915914 0.6026317535489930	0.106468
H	0.0866732111454707 0.9621805776353722 0.2217027183982641	0.094780
H	0.1859756394530386 0.9607273615164699 0.2302490428728865	0.128698
H	0.4205271887201026 0.8641624754980384 0.3980350884741973	0.112057
H	0.4208415797915914 0.9636486064628995 0.3973683104510058	0.106469
H	0.9621805776353722 0.0866732111454707 0.7782972656017351	0.094780
H	0.9607273615164699 0.1859756394530386 0.7697509571271136	0.128698
H	0.5794728492799009 0.1358375535019603 0.3980350884741973	0.112056
H	0.5791583812084090 0.0363514175371022 0.3973683104510058	0.106469
H	0.0378194323646288 0.9133268368545261 0.7782972656017351	0.094780
H	0.0392726434835270 0.8140244175469625 0.7697509571271136	0.128698
H	0.8641624754980384 0.5794728492799009 0.3980350884741973	0.112056
H	0.9636486064628995 0.5791583812084090 0.3973683104510058	0.106469
H	0.0866732111454707 0.0378194323646288 0.7782972656017351	0.094780
H	0.1859756394530386 0.0392726434835270 0.7697509571271136	0.128698
H	0.1358375535019603 0.4205271887201026 0.3980350884741973	0.112057
H	0.0363514175371022 0.4208415797915914 0.3973683104510058	0.106469
H	0.9133268368545261 0.9621805776353722 0.7782972656017351	0.094780
H	0.8140244175469625 0.9607273615164699 0.7697509571271136	0.128698
Fe	0.5000000000000000 0.5000000000000000 0.5000000000000000	0.854252
Fe	-0.0000000000000000 -0.0000000000000000 -0.0000000000000000	0.854252
Zr	0.5000000000000000 0.5000000000000000 -0.0000000000000000	2.468642
Zr	-0.0000000000000000 -0.0000000000000000 0.5000000000000000	2.468642
F	0.5000000000000000 0.5000000000000000 0.2444960349891282	-0.605733
F	-0.0000000000000000 -0.0000000000000000 0.7444960029891327	-0.605733
F	0.5000000000000000 0.5000000000000000 0.7555039010108736	-0.605733
F	-0.0000000000000000 -0.0000000000000000 0.2555039650108719	-0.605733
F	0.5579077098810973 0.5579077098810973 -0.0000000000000000	-0.682537
F	0.0579076628810971 0.0579076628810971 0.5000000000000000	-0.682537
F	0.4420923661189090 0.4420923661189090 -0.0000000000000000	-0.682537
F	0.9420923281189059 0.9420923281189059 0.5000000000000000	-0.682537
F	0.4420923661189090 0.5579077098810973 -0.0000000000000000	-0.682537
F	0.9420923281189059 0.0579076628810971 0.5000000000000000	-0.682537
F	0.5579077098810973 0.4420923661189090 -0.0000000000000000	-0.682537
F	0.0579076628810971 0.9420923281189059 0.5000000000000000	-0.682537
N	0.5000000000000000 0.4177550494124510 0.5000000000000000	-0.260008
N	-0.0000000000000000 0.9177550874124543 -0.0000000000000000	-0.260008
N	0.5000000000000000 0.5822449505875489 0.5000000000000000	-0.260008
N	-0.0000000000000000 0.0822449595875463 -0.0000000000000000	-0.260008
N	0.5822449505875489 0.5000000000000000 0.5000000000000000	-0.260008
N	0.0822449595875463 -0.0000000000000000 -0.0000000000000000	-0.260008
N	0.4177550494124510 0.5000000000000000 0.5000000000000000	-0.260008
N	0.9177550874124543 -0.0000000000000000 -0.0000000000000000	-0.260008
	  	
