#======================================================================

# CRYSTAL DATA

#----------------------------------------------------------------------

data_VESTA_phase_1


_pd_phase_name                         ZrFSIX_16_Co_i
_cell_length_a                         24.80253
_cell_length_b                         24.80253
_cell_length_c                         8.30312
_cell_angle_alpha                      90
_cell_angle_beta                       90
_cell_angle_gamma                      90
_symmetry_space_group_name_H-M         P 1
_symmetry_Int_Tables_number            1

loop_
_symmetry_equiv_pos_as_xyz
   x, y, z

loop_
   _atom_site_label
   _atom_site_fract_x
   _atom_site_fract_y
   _atom_site_fract_z
   _atom_site_charge
C	0.4785627040073383 0.3923203245607902 0.3753188084296827	0.093213
C	0.4779907226135775 0.3364486627079257 0.3707795477783785	-0.163417
C	0.9548805178721238 0.6146543684616957 0.9430359943996468	-0.125561
C	0.9550086235417744 0.5586304485616969 0.9438852857148454	-0.126067
C	0.5214373339926576 0.6076797134392055 0.3753188084296827	0.093212
C	0.5220092773864229 0.6635513752920702 0.3707795477783785	-0.163394
C	0.0451194061278768 0.3853455925383051 0.9430359943996468	-0.125561
C	0.0449913954582234 0.4413695894383063 0.9438852857148454	-0.126067
C	0.6076797134392055 0.4785627040073383 0.3753188084296827	0.093212
C	0.6635513752920702 0.4779907226135775 0.3707795477783785	-0.163394
C	0.3853455925383051 0.9548805178721238 0.9430359943996468	-0.125561
C	0.4413695894383063 0.9550086235417744 0.9438852857148454	-0.126067
C	0.3923203245607902 0.5214373339926576 0.3753188084296827	0.093213
C	0.3364486627079257 0.5220092773864229 0.3707795477783785	-0.163417
C	0.6146543684616957 0.0451194061278768 0.9430359943996468	-0.125561
C	0.5586304485616969 0.0449913954582234 0.9438852857148454	-0.126067
C	0.5214373339926576 0.3923203245607902 0.6246811915703173	0.093213
C	0.5220092773864229 0.3364486627079257 0.6292204202216193	-0.163417
C	0.0451194061278768 0.6146543684616957 0.0569640176003472	-0.125561
C	0.0449913954582234 0.5586304485616969 0.0561146902851525	-0.126068
C	0.4785627040073383 0.6076797134392055 0.6246811915703173	0.093212
C	0.4779907226135775 0.6635513752920702 0.6292204202216193	-0.163394
C	0.9548805178721238 0.3853455925383051 0.0569640176003472	-0.125561
C	0.9550086235417744 0.4413695894383063 0.0561146902851525	-0.126068
C	0.3923203245607902 0.4785627040073383 0.6246811915703173	0.093213
C	0.3364486627079257 0.4779907226135775 0.6292204202216193	-0.163417
C	0.6146543684616957 0.9548805178721238 0.0569640176003472	-0.125561
C	0.5586304485616969 0.9550086235417744 0.0561146902851525	-0.126068
C	0.6076797134392055 0.5214373339926576 0.6246811915703173	0.093212
C	0.6635513752920702 0.5220092773864229 0.6292204202216193	-0.163394
C	0.3853455925383051 0.0451194061278768 0.0569640176003472	-0.125561
C	0.4413695894383063 0.0449913954582234 0.0561146902851525	-0.126067
C	0.5451194441278802 0.8853455545383085 0.5569640376003416	-0.125558
C	0.5449913764582256 0.9413695894383063 0.5561146822851519	-0.126067
C	0.0214372879926610 0.1076796564392118 0.1246811915703174	0.093213
C	0.0220092753864224 0.1635513372920742 0.1292204362216202	-0.163417
C	0.4548805938721232 0.1146544164616924 0.5569640376003416	-0.125561
C	0.4550085855417787 0.0586303955616962 0.5561146822851519	-0.126067
C	0.9785626660073424 0.8923202865607945 0.1246811915703174	0.093213
C	0.9779907226135771 0.8364486627079258 0.1292204362216202	-0.163417
C	0.1146544164616924 0.5451194441278802 0.5569640376003416	-0.125561
C	0.0586303955616962 0.5449913764582256 0.5561146822851519	-0.126067
C	0.8923202865607945 0.0214372879926610 0.1246811915703174	0.093213
C	0.8364486627079258 0.0220092753864224 0.1292204362216202	-0.163417
C	0.8853455545383085 0.4548805938721232 0.5569640376003416	-0.125558
C	0.9413695894383063 0.4550085855417787 0.5561146822851519	-0.126067
C	0.1076796564392118 0.9785626660073424 0.1246811915703174	0.093213
C	0.1635513372920742 0.9779907226135771 0.1292204362216202	-0.163417
C	0.4548805938721232 0.8853455545383085 0.4430359943996537	-0.125558
C	0.4550085855417787 0.9413695894383063 0.4438853177148483	-0.126067
C	0.9785626660073424 0.1076796564392118 0.8753188404296782	0.093213
C	0.9779907226135771 0.1635513372920742 0.8707795477783781	-0.163417
C	0.5451194441278802 0.1146544164616924 0.4430359943996537	-0.125560
C	0.5449913764582256 0.0586303955616962 0.4438853177148483	-0.126068
C	0.0214372879926610 0.8923202865607945 0.8753188404296782	0.093213
C	0.0220092753864224 0.8364486627079258 0.8707795477783781	-0.163418
C	0.8853455545383085 0.5451194441278802 0.4430359943996537	-0.125558
C	0.9413695894383063 0.5449913764582256 0.4438853177148483	-0.126067
C	0.1076796564392118 0.0214372879926610 0.8753188404296782	0.093213
C	0.1635513372920742 0.0220092753864224 0.8707795477783781	-0.163417
C	0.1146544164616924 0.4548805938721232 0.4430359943996537	-0.125560
C	0.0586303955616962 0.4550085855417787 0.4438853177148483	-0.126068
C	0.8923202865607945 0.9785626660073424 0.8753188404296782	0.093213
C	0.8364486627079258 0.9779907226135771 0.8707795477783781	-0.163418
C	0.5000000000000000 0.3070094868672436 0.5000000000000000	0.175402
C	0.5000000000000000 0.2499055499057503 0.5000000000000000	-0.116580
C	0.5000000000000000 0.2007448519919416 0.5000000000000000	-0.091035
C	0.5000000000000000 0.1435818419117860 0.5000000000000000	0.125279
C	0.5000000000000000 0.0297077501677260 0.5000000000000000	0.066775
C	-0.0000000000000000 0.8070094678672380 0.0000000000000000	0.175402
C	-0.0000000000000000 0.7499055299057489 0.0000000000000000	-0.116580
C	-0.0000000000000000 0.7007448139919461 0.0000000000000000	-0.091035
C	-0.0000000000000000 0.6435818039117831 0.0000000000000000	0.125279
C	-0.0000000000000000 0.5297077641677272 0.0000000000000000	0.066775
C	0.5000000000000000 0.6929904941327588 0.5000000000000000	0.175335
C	0.5000000000000000 0.7500945080942472 0.5000000000000000	-0.116639
C	0.5000000000000000 0.7992551480080579 0.5000000000000000	-0.090925
C	0.5000000000000000 0.8564181580882138 0.5000000000000000	0.125252
C	0.5000000000000000 0.9702922358322728 0.5000000000000000	0.066775
C	-0.0000000000000000 0.1929905131327565 0.0000000000000000	0.175402
C	-0.0000000000000000 0.2500944500942499 0.0000000000000000	-0.116580
C	-0.0000000000000000 0.2992551280080568 0.0000000000000000	-0.091035
C	-0.0000000000000000 0.3564181580882141 0.0000000000000000	0.125279
C	-0.0000000000000000 0.4702922738322761 0.0000000000000000	0.066775
C	0.6929904941327588 0.5000000000000000 0.5000000000000000	0.175335
C	0.7500945080942472 0.5000000000000000 0.5000000000000000	-0.116639
C	0.7992551480080579 0.5000000000000000 0.5000000000000000	-0.090925
C	0.8564181580882138 0.5000000000000000 0.5000000000000000	0.125252
C	0.9702922358322728 0.5000000000000000 0.5000000000000000	0.066775
C	0.1929905131327565 -0.0000000000000000 0.0000000000000000	0.175402
C	0.2500944500942499 -0.0000000000000000 0.0000000000000000	-0.116580
C	0.2992551280080568 -0.0000000000000000 0.0000000000000000	-0.091035
C	0.3564181580882141 -0.0000000000000000 0.0000000000000000	0.125279
C	0.4702922738322761 -0.0000000000000000 0.0000000000000000	0.066775
C	0.3070094868672436 0.5000000000000000 0.5000000000000000	0.175402
C	0.2499055499057503 0.5000000000000000 0.5000000000000000	-0.116580
C	0.2007448519919416 0.5000000000000000 0.5000000000000000	-0.091035
C	0.1435818419117860 0.5000000000000000 0.5000000000000000	0.125279
C	0.0297077501677260 0.5000000000000000 0.5000000000000000	0.066775
C	0.8070094678672380 -0.0000000000000000 0.0000000000000000	0.175402
C	0.7499055299057489 -0.0000000000000000 0.0000000000000000	-0.116580
C	0.7007448139919461 -0.0000000000000000 0.0000000000000000	-0.091035
C	0.6435818039117831 -0.0000000000000000 0.0000000000000000	0.125279
C	0.5297077641677272 -0.0000000000000000 0.0000000000000000	0.066775
H	0.4619599700462643 0.4157202215694155 0.2758954311452537	0.100838
H	0.4606441154984527 0.3159597595268793 0.2670320335702819	0.131396
H	0.9200982971861531 0.6367361518720912 0.8973888451762874	0.112822
H	0.9202732899361026 0.5367753474104032 0.8965185258130164	0.106642
H	0.5380400299537361 0.5842797784305849 0.2758954311452537	0.100838
H	0.5393559225015503 0.6840403164731199 0.2670320335702819	0.131392
H	0.0799016838138492 0.3632638481279090 0.8973888451762874	0.112822
H	0.0797267390638964 0.4632246915895963 0.8965185258130164	0.106642
H	0.5842797784305849 0.4619599700462643 0.2758954311452537	0.100838
H	0.6840403164731199 0.4606441154984527 0.2670320335702819	0.131392
H	0.3632638481279090 0.9200982971861531 0.8973888451762874	0.112822
H	0.4632246915895963 0.9202732899361026 0.8965185258130164	0.106642
H	0.4157202215694155 0.5380400299537361 0.2758954311452537	0.100838
H	0.3159597595268793 0.5393559225015503 0.2670320335702819	0.131396
H	0.6367361518720912 0.0799016838138492 0.8973888451762874	0.112822
H	0.5367753474104032 0.0797267390638964 0.8965185258130164	0.106642
H	0.5380400299537361 0.4157202215694155 0.7241045528547450	0.100838
H	0.5393559225015503 0.3159597595268793 0.7329679664297256	0.131396
H	0.0799016838138492 0.6367361518720912 0.1026111308237111	0.112822
H	0.0797267390638964 0.5367753474104032 0.1034814741869835	0.106642
H	0.4619599700462643 0.5842797784305849 0.7241045528547450	0.100838
H	0.4606441154984527 0.6840403164731199 0.7329679664297256	0.131392
H	0.9200982971861531 0.3632638481279090 0.1026111308237111	0.112822
H	0.9202732899361026 0.4632246915895963 0.1034814741869835	0.106642
H	0.4157202215694155 0.4619599700462643 0.7241045528547450	0.100838
H	0.3159597595268793 0.4606441154984527 0.7329679664297256	0.131396
H	0.6367361518720912 0.9200982971861531 0.1026111308237111	0.112822
H	0.5367753474104032 0.9202732899361026 0.1034814741869835	0.106642
H	0.5842797784305849 0.5380400299537361 0.7241045528547450	0.100838
H	0.6840403164731199 0.5393559225015503 0.7329679664297256	0.131392
H	0.3632638481279090 0.0799016838138492 0.1026111308237111	0.112822
H	0.4632246915895963 0.0797267390638964 0.1034814741869835	0.106642
H	0.5799017028138469 0.8632638481279088 0.6026111228237100	0.112820
H	0.5797267100638974 0.9632246915895964 0.6034815061869863	0.106642
H	0.0380400399537366 0.0842797494305858 0.2241045688547462	0.100838
H	0.0393559275015472 0.1840402594731188 0.2329679984297138	0.131396
H	0.4200983351861560 0.1367361808720899 0.6026111228237100	0.112821
H	0.4202732509361030 0.0367753324103986 0.6034815061869863	0.106642
H	0.9619599700462639 0.9157202985694108 0.2241045688547462	0.100838
H	0.9606440774984497 0.8159597975268824 0.2329679984297138	0.131396
H	0.1367361808720899 0.5799017028138469 0.6026111228237100	0.112821
H	0.0367753324103986 0.5797267100638974 0.6034815061869863	0.106642
H	0.9157202985694108 0.0380400399537366 0.2241045688547462	0.100838
H	0.8159597975268824 0.0393559275015472 0.2329679984297138	0.131396
H	0.8632638481279088 0.4200983351861560 0.6026111228237100	0.112820
H	0.9632246915895964 0.4202732509361030 0.6034815061869863	0.106642
H	0.0842797494305858 0.9619599700462639 0.2241045688547462	0.100838
H	0.1840402594731188 0.9606440774984497 0.2329679984297138	0.131396
H	0.4200983351861560 0.8632638481279088 0.3973888451762868	0.112820
H	0.4202732509361030 0.9632246915895964 0.3965185578130120	0.106642
H	0.9619599700462639 0.0842797494305858 0.7758954151452524	0.100838
H	0.9606440774984497 0.1840402594731188 0.7670320015702859	0.131396
H	0.5799017028138469 0.1367361808720899 0.3973888451762868	0.112820
H	0.5797267100638974 0.0367753324103986 0.3965185578130120	0.106642
H	0.0380400399537366 0.9157202985694108 0.7758954151452524	0.100838
H	0.0393559275015472 0.8159597975268824 0.7670320015702859	0.131396
H	0.8632638481279088 0.5799017028138469 0.3973888451762868	0.112820
H	0.9632246915895964 0.5797267100638974 0.3965185578130120	0.106642
H	0.0842797494305858 0.0380400399537366 0.7758954151452524	0.100838
H	0.1840402594731188 0.0393559275015472 0.7670320015702859	0.131396
H	0.1367361808720899 0.4200983351861560 0.3973888451762868	0.112820
H	0.0367753324103986 0.4202732509361030 0.3965185578130120	0.106642
H	0.9157202985694108 0.9619599700462639 0.7758954151452524	0.100838
H	0.8159597975268824 0.9606440774984497 0.7670320015702859	0.131396
Co	0.5000000000000000 0.5000000000000000 0.5000000000000000	0.588128
Co	-0.0000000000000000 -0.0000000000000000 0.0000000000000000	0.588129
Zr	0.5000000000000000 0.5000000000000000 0.0000000000000000	2.457165
Zr	-0.0000000000000000 -0.0000000000000000 0.5000000000000000	2.457164
F	0.5000000000000000 0.5000000000000000 0.2448945424201996	-0.616001
F	-0.0000000000000000 -0.0000000000000000 0.7448945104202038	-0.616001
F	0.5000000000000000 0.5000000000000000 0.7551053935798024	-0.616001
F	-0.0000000000000000 -0.0000000000000000 0.2551054575798001	-0.616001
F	0.5582841535904788 0.5582841535904788 0.0000000000000000	-0.682802
F	0.0582841065904783 0.0582841065904783 0.5000000000000000	-0.682802
F	0.4417159224095277 0.4417159224095277 0.0000000000000000	-0.682802
F	0.9417158844095244 0.9417158844095244 0.5000000000000000	-0.682802
F	0.4417159224095277 0.5582841535904788 0.0000000000000000	-0.682802
F	0.9417158844095244 0.0582841065904783 0.5000000000000000	-0.682802
F	0.5582841535904788 0.4417159224095277 0.0000000000000000	-0.682802
F	0.0582841065904783 0.9417158844095244 0.5000000000000000	-0.682802
N	0.5000000000000000 0.4200995715585454 0.5000000000000000	-0.190091
N	-0.0000000000000000 0.9200996095585483 0.0000000000000000	-0.190091
N	0.5000000000000000 0.5799004284414548 0.5000000000000000	-0.190090
N	-0.0000000000000000 0.0799004374414518 0.0000000000000000	-0.190091
N	0.5799004284414548 0.5000000000000000 0.5000000000000000	-0.190090
N	0.0799004374414518 -0.0000000000000000 0.0000000000000000	-0.190091
N	0.4200995715585454 0.5000000000000000 0.5000000000000000	-0.190091
N	0.9200996095585483 -0.0000000000000000 0.0000000000000000	-0.190091
	  	
