#======================================================================

# CRYSTAL DATA

#----------------------------------------------------------------------

data_VESTA_phase_1


_pd_phase_name                         ZrFSIX_15_Cu_i
_cell_length_a                         30.04556
_cell_length_b                         29.31675
_cell_length_c                         8.06482
_cell_angle_alpha                      90
_cell_angle_beta                       90
_cell_angle_gamma                      90
_symmetry_space_group_name_H-M         P 1
_symmetry_Int_Tables_number            1

loop_
_symmetry_equiv_pos_as_xyz
   x, y, z

loop_
   _atom_site_label
   _atom_site_fract_x
   _atom_site_fract_y
   _atom_site_fract_z
   _atom_site_charge
C	0.9319728768967855 0.1013096911503714 0.8933677791592213	0.115940
C	0.9003246392888498 0.0668299812859164 0.8997096549160981	-0.161621
C	0.7697389672202276 0.9362699323098841 0.9011773177114210	-0.115479
C	0.7357758988136134 0.9042905236320926 0.9009400426770552	-0.116830
C	0.5694402027371239 0.7429602019495378 0.8932839900457887	0.113997
C	0.6029756169135340 0.7755040992053783 0.8993764074801358	-0.168510
C	0.4319729088967810 0.6013097071503729 0.8933677791592213	0.115940
C	0.4003246712888522 0.5668299442859167 0.8997096549160981	-0.161621
C	0.2697389032202297 0.4362699653098831 0.9011773177114210	-0.115479
C	0.2357758668136106 0.4042905896320982 0.9009400426770552	-0.116830
C	0.0694402267371264 0.2429601849495401 0.8932839900457887	0.113997
C	0.1029755929135318 0.2755041322053772 0.8993764074801358	-0.168510
C	0.0680270911032191 0.8986902928496271 0.3933678101592201	0.115940
C	0.0996753367111483 0.9331700557140833 0.3997096869160938	-0.161621
C	0.2302610487797736 0.0637300306901166 0.4011773797114187	-0.115478
C	0.2642241171863882 0.0957094263679032 0.4009400426770549	-0.116830
C	0.4305597652628729 0.2570398480504592 0.3932840210457878	0.113996
C	0.3970243830864662 0.2244958677946228 0.3993764074801362	-0.168509
C	0.5680271231032145 0.3986903258496265 0.3933678101592201	0.115940
C	0.5996753607111502 0.4331700557140830 0.3997096869160938	-0.161622
C	0.7302610327797724 0.5637300676901159 0.4011773797114187	-0.115478
C	0.7642241011863866 0.5957094763679074 0.4009400426770549	-0.116830
C	0.9305597972628761 0.7570397980504622 0.3932840210457878	0.113996
C	0.8970243830864660 0.7244959007946217 0.3993764074801362	-0.168509
C	0.0680270911032191 0.1013096911503714 0.6066321898407797	0.115939
C	0.0996753367111483 0.0668299812859164 0.6002902510839012	-0.161620
C	0.2302610487797736 0.9362699323098841 0.5988226512885800	-0.115477
C	0.2642241171863882 0.9042905236320926 0.5990599883229438	-0.116831
C	0.4305597652628729 0.7429602019495378 0.6067159159542106	0.113996
C	0.3970243830864662 0.7755040992053783 0.6006235615198652	-0.168510
C	0.5680271231032145 0.6013097071503729 0.6066321898407797	0.115939
C	0.5996753607111502 0.5668299442859167 0.6002902510839012	-0.161620
C	0.7302610327797724 0.4362699653098831 0.5988226512885800	-0.115477
C	0.7642241011863866 0.4042905896320982 0.5990599883229438	-0.116831
C	0.9305597972628761 0.2429601849495401 0.6067159159542106	0.113996
C	0.8970243830864660 0.2755041322053772 0.6006235615198652	-0.168509
C	0.9319728768967855 0.8986902928496271 0.1066322058407812	0.115940
C	0.9003246392888498 0.9331700557140833 0.1002902900839008	-0.161621
C	0.7697389672202276 0.0637300306901166 0.0988226512885801	-0.115476
C	0.7357758988136134 0.0957094263679032 0.0990599733229392	-0.116831
C	0.5694402027371239 0.2570398480504592 0.1067159709542117	0.113996
C	0.6029756169135340 0.2244958677946228 0.1006236075198616	-0.168509
C	0.4319729088967810 0.3986903258496265 0.1066322058407812	0.115940
C	0.4003246712888522 0.4331700557140830 0.1002902900839008	-0.161621
C	0.2697389032202297 0.5637300676901159 0.0988226512885801	-0.115476
C	0.2357758668136106 0.5957094763679074 0.0990599733229392	-0.116832
C	0.0694402267371264 0.7570397980504622 0.1067159709542116	0.113995
C	0.1029755929135318 0.7244959007946217 0.1006236075198616	-0.168509
C	0.0680270911032191 0.8986902928496271 0.1066322058407812	0.115938
C	0.0996753367111483 0.9331700557140833 0.1002902900839008	-0.161619
C	0.2302610487797736 0.0637300306901166 0.0988226512885801	-0.115477
C	0.2642241171863882 0.0957094263679032 0.0990599733229392	-0.116835
C	0.4305597652628729 0.2570398480504592 0.1067159709542116	0.113987
C	0.3970243830864662 0.2244958677946228 0.1006236075198616	-0.168501
C	0.5680271231032145 0.3986903258496265 0.1066322058407812	0.115938
C	0.5996753607111502 0.4331700557140830 0.1002902900839008	-0.161619
C	0.7302610327797724 0.5637300676901159 0.0988226512885801	-0.115477
C	0.7642241011863866 0.5957094763679074 0.0990599733229392	-0.116835
C	0.9305597972628761 0.7570397980504622 0.1067159709542117	0.113987
C	0.8970243830864660 0.7244959007946217 0.1006236075198616	-0.168501
C	0.9319728768967855 0.1013096911503714 0.6066321898407797	0.115938
C	0.9003246392888498 0.0668299812859164 0.6002902510839012	-0.161619
C	0.7697389672202276 0.9362699323098841 0.5988226512885800	-0.115478
C	0.7357758988136134 0.9042905236320926 0.5990599883229438	-0.116834
C	0.5694402027371239 0.7429602019495378 0.6067159159542106	0.113987
C	0.6029756169135340 0.7755040992053783 0.6006235615198652	-0.168501
C	0.4319729088967810 0.6013097071503729 0.6066321898407797	0.115938
C	0.4003246712888522 0.5668299442859167 0.6002902510839012	-0.161618
C	0.2697389032202297 0.4362699653098831 0.5988226512885800	-0.115478
C	0.2357758668136106 0.4042905896320982 0.5990599883229438	-0.116834
C	0.0694402267371264 0.2429601849495401 0.6067159159542106	0.113987
C	0.1029755929135318 0.2755041322053772 0.6006235615198652	-0.168501
C	0.9319728768967855 0.8986902928496271 0.3933678101592201	0.115937
C	0.9003246392888498 0.9331700557140833 0.3997096869160938	-0.161619
C	0.7697389672202276 0.0637300306901166 0.4011773797114187	-0.115475
C	0.7357758988136134 0.0957094263679032 0.4009400426770549	-0.116836
C	0.5694402027371239 0.2570398480504592 0.3932840210457878	0.113986
C	0.6029756169135340 0.2244958677946228 0.3993764074801362	-0.168501
C	0.4319729088967810 0.3986903258496265 0.3933678101592201	0.115937
C	0.4003246712888522 0.4331700557140830 0.3997096869160938	-0.161619
C	0.2697389032202297 0.5637300676901159 0.4011773797114187	-0.115475
C	0.2357758668136106 0.5957094763679074 0.4009400426770549	-0.116836
C	0.0694402267371264 0.7570397980504622 0.3932840210457878	0.113986
C	0.1029755929135318 0.7244959007946217 0.3993764074801362	-0.168501
C	0.0680270911032191 0.1013096911503714 0.8933677791592213	0.115937
C	0.0996753367111483 0.0668299812859164 0.8997096549160981	-0.161618
C	0.2302610487797736 0.9362699323098841 0.9011773177114210	-0.115476
C	0.2642241171863882 0.9042905236320926 0.9009400426770552	-0.116835
C	0.4305597652628729 0.7429602019495378 0.8932839900457887	0.113986
C	0.3970243830864662 0.7755040992053783 0.8993764074801358	-0.168501
C	0.5680271231032145 0.6013097071503729 0.8933677791592213	0.115937
C	0.5996753607111502 0.5668299442859167 0.8997096549160981	-0.161618
C	0.7302610327797724 0.4362699653098831 0.9011773177114210	-0.115476
C	0.7642241011863866 0.4042905896320982 0.9009400426770552	-0.116835
C	0.9305597972628761 0.2429601849495401 0.8932839900457887	0.113986
C	0.8970243830864660 0.2755041322053772 0.8993764074801358	-0.168501
C	0.6546547270811878 0.8258842075246828 0.7500000160000013	-0.108706
C	0.8836992619192168 0.0489433220930207 0.7500000160000013	0.162301
C	0.8215505223611700 0.9856134095947080 0.7500000160000013	-0.096540
C	0.6205980906811573 0.7926288664732308 0.7500000160000013	0.174857
C	0.7872457541393914 0.9527220047652945 0.7500000160000013	0.127141
C	0.7182696151208396 0.8876406999283429 0.7500000160000013	0.139208
C	0.6840199217843327 0.8546432482735012 0.7500000160000013	-0.098788
C	0.8507624989618180 0.0145421208664419 0.7500000160000013	-0.108970
C	0.1546547110811864 0.3258842075246828 0.7500000160000013	-0.108706
C	0.3836991659192162 0.5489433340930220 0.7500000160000013	0.162301
C	0.3215505223611699 0.4856134095947086 0.7500000160000013	-0.096540
C	0.1205980826811567 0.2926288664732309 0.7500000160000013	0.174857
C	0.2872457221393955 0.4527220047652945 0.7500000160000013	0.127141
C	0.2182695991208386 0.3876407329283427 0.7500000160000013	0.139208
C	0.1840198887843334 0.3546432152735022 0.7500000160000013	-0.098787
C	0.3507624669618152 0.5145421158664383 0.7500000160000013	-0.108970
C	0.3453453049188148 0.1741157924753172 0.2500000000000000	-0.108705
C	0.1163008100807889 0.9510566659069780 0.2500000000000000	0.162302
C	0.1784494776388301 0.0143865864052914 0.2500000000000000	-0.096539
C	0.3794019093188427 0.2073711175267677 0.2500000000000000	0.174857
C	0.2127542618606101 0.0472779872347049 0.2500000000000000	0.127141
C	0.2817303848791600 0.1123592590716569 0.2500000000000000	0.139209
C	0.3159801112156664 0.1453567517264985 0.2500000000000000	-0.098787
C	0.1492375330381848 0.9854578511335625 0.2500000000000000	-0.108971
C	0.8453452729188122 0.6741157924753172 0.2500000000000000	-0.108705
C	0.6163007380807832 0.4510566989069775 0.2500000000000000	0.162302
C	0.6784494776388300 0.5143865904052920 0.2500000000000000	-0.096539
C	0.8794019093188427 0.7073711335267692 0.2500000000000000	0.174857
C	0.7127542458606086 0.5472780282347047 0.2500000000000000	0.127141
C	0.7817303848791604 0.6123593000716571 0.2500000000000000	0.139209
C	0.8159800782156673 0.6453567517264988 0.2500000000000000	-0.098787
C	0.6492375010381820 0.4854578511335630 0.2500000000000000	-0.108971
C	0.3453453049188148 0.8258842075246828 0.7500000160000013	-0.108706
C	0.1163008100807889 0.0489433220930207 0.7500000160000013	0.162301
C	0.1784494776388301 0.9856134095947080 0.7500000160000013	-0.096539
C	0.3794019093188427 0.7926288664732308 0.7500000160000013	0.174858
C	0.2127542618606101 0.9527220047652945 0.7500000160000013	0.127141
C	0.2817303848791600 0.8876406999283429 0.7500000160000013	0.139208
C	0.3159801112156664 0.8546432482735012 0.7500000160000013	-0.098787
C	0.1492375330381848 0.0145421208664419 0.7500000160000013	-0.108970
C	0.8453452729188122 0.3258842075246828 0.7500000160000013	-0.108706
C	0.6163007380807832 0.5489433340930220 0.7500000160000013	0.162301
C	0.6784494776388300 0.4856134095947086 0.7500000160000013	-0.096539
C	0.8794019093188427 0.2926288664732309 0.7500000160000013	0.174858
C	0.7127542458606086 0.4527220047652945 0.7500000160000013	0.127141
C	0.7817303848791604 0.3876407329283427 0.7500000160000013	0.139209
C	0.8159800782156673 0.3546432152735022 0.7500000160000013	-0.098787
C	0.6492375010381820 0.5145421158664383 0.7500000160000013	-0.108970
C	0.6546547270811878 0.1741157924753172 0.2500000000000000	-0.108705
C	0.8836992619192168 0.9510566659069780 0.2500000000000000	0.162301
C	0.8215505223611700 0.0143865864052914 0.2500000000000000	-0.096539
C	0.6205980906811573 0.2073711175267677 0.2500000000000000	0.174857
C	0.7872457541393914 0.0472779872347049 0.2500000000000000	0.127140
C	0.7182696151208396 0.1123592590716569 0.2500000000000000	0.139209
C	0.6840199217843327 0.1453567517264985 0.2500000000000000	-0.098787
C	0.8507624989618180 0.9854578511335625 0.2500000000000000	-0.108971
C	0.1546547110811864 0.6741157924753172 0.2500000000000000	-0.108705
C	0.3836991659192162 0.4510566989069775 0.2500000000000000	0.162302
C	0.3215505223611699 0.5143865904052920 0.2500000000000000	-0.096539
C	0.1205980826811567 0.7073711335267692 0.2500000000000000	0.174857
C	0.2872457221393955 0.5472780282347047 0.2500000000000000	0.127140
C	0.2182695991208386 0.6123593000716571 0.2500000000000000	0.139209
C	0.1840198887843334 0.6453567517264988 0.2500000000000000	-0.098787
C	0.3507624669618152 0.4854578511335630 0.2500000000000000	-0.108971
H	0.9450457139623069 0.1156254165978146 0.0077382482044464	0.077811
H	0.8885928803969753 0.0540077821690366 0.0187771098931847	0.121695
H	0.7833152577563763 0.9490132952361920 0.0176686511025021	0.106453
H	0.7222487526049788 0.8915699581683212 0.0173686583733190	0.114724
H	0.5554936815737654 0.7295493060751375 0.0077011548625367	0.078200
H	0.6153768803316844 0.7874726806266009 0.0185441402159468	0.127916
H	0.4450458099623080 0.6156254325978160 0.0077382482044464	0.077811
H	0.3885928163969768 0.5540078111690425 0.0187771098931847	0.121695
H	0.2833152577563760 0.4490132952361919 0.0176686511025021	0.106453
H	0.2222487686049800 0.3915700571683258 0.0173686583733190	0.114724
H	0.0554936895737663 0.2295493550751376 0.0077011548625367	0.078200
H	0.1153768963316786 0.2874726146266028 0.0185441402159468	0.127916
H	0.0549542260376878 0.8843745674021840 0.5077382772044451	0.077811
H	0.1114071676030219 0.9459921888309575 0.5187771448931845	0.121695
H	0.2166847742436264 0.0509867217638130 0.5176686831025049	0.106453
H	0.2777512473950212 0.1084299678316798 0.5173686543733184	0.114724
H	0.4445063184262343 0.2704506279248646 0.5077011548625368	0.078200
H	0.3846231196683156 0.2125273363733968 0.5185441712159458	0.127915
H	0.5549542860376931 0.3843745674021842 0.5077382772044451	0.077811
H	0.6114071196030247 0.4459922218309636 0.5187771448931845	0.121695
H	0.7166847422436237 0.5509867047638080 0.5176686831025049	0.106453
H	0.7777512473950212 0.6084300418316788 0.5173686543733184	0.114724
H	0.9445063184262346 0.7704506939248625 0.5077011548625368	0.078200
H	0.8846231196683156 0.7125273193733991 0.5185441712159458	0.127915
H	0.0549542260376878 0.1156254165978146 0.4922617537955538	0.077811
H	0.1114071676030219 0.0540077821690366 0.4812228551068088	0.121695
H	0.2166847742436264 0.9490132952361920 0.4823313488974980	0.106453
H	0.2777512473950212 0.8915699581683212 0.4826313456266813	0.114724
H	0.4445063184262343 0.7295493060751375 0.4922988771374661	0.078200
H	0.3846231196683156 0.7874726806266009 0.4814558597840535	0.127916
H	0.5549542860376931 0.6156254325978160 0.4922617537955538	0.077811
H	0.6114071196030247 0.5540078111690425 0.4812228551068088	0.121695
H	0.7166847422436237 0.4490132952361919 0.4823313488974980	0.106453
H	0.7777512473950212 0.3915700571683258 0.4826313456266813	0.114724
H	0.9445063184262346 0.2295493550751376 0.4922988771374661	0.078200
H	0.8846231196683156 0.2874726146266028 0.4814558597840535	0.127916
H	0.9450457139623069 0.8843745674021840 0.9922617537955539	0.077812
H	0.8885928803969753 0.9459921888309575 0.9812228241068094	0.121695
H	0.7833152577563763 0.0509867217638130 0.9823313488974977	0.106453
H	0.7222487526049788 0.1084299678316798 0.9826313146266755	0.114724
H	0.5554936815737654 0.2704506279248646 0.9922988451374632	0.078200
H	0.6153768803316844 0.2125273363733968 0.9814558597840533	0.127916
H	0.4450458099623080 0.3843745674021842 0.9922617537955539	0.077812
H	0.3885928163969768 0.4459922218309636 0.9812228241068094	0.121695
H	0.2833152577563760 0.5509867047638080 0.9823313488974977	0.106453
H	0.2222487686049800 0.6084300418316788 0.9826313146266755	0.114724
H	0.0554936895737663 0.7704506939248625 0.9922988451374632	0.078200
H	0.1153768963316786 0.7125273193733991 0.9814558597840533	0.127916
H	0.0549542260376878 0.8843745674021840 0.9922617537955539	0.077811
H	0.1114071676030219 0.9459921888309575 0.9812228241068094	0.121688
H	0.2166847742436264 0.0509867217638130 0.9823313488974977	0.106456
H	0.2777512473950212 0.1084299678316798 0.9826313146266755	0.114744
H	0.4445063184262343 0.2704506279248646 0.9922988451374632	0.078199
H	0.3846231196683156 0.2125273363733968 0.9814558597840533	0.127899
H	0.5549542860376931 0.3843745674021842 0.9922617537955539	0.077811
H	0.6114071196030247 0.4459922218309636 0.9812228241068094	0.121688
H	0.7166847422436237 0.5509867047638080 0.9823313488974977	0.106456
H	0.7777512473950212 0.6084300418316788 0.9826313146266755	0.114744
H	0.9445063184262346 0.7704506939248625 0.9922988451374632	0.078199
H	0.8846231196683156 0.7125273193733991 0.9814558597840533	0.127899
H	0.9450457139623069 0.1156254165978146 0.4922617537955538	0.077811
H	0.8885928803969753 0.0540077821690366 0.4812228551068088	0.121687
H	0.7833152577563763 0.9490132952361920 0.4823313488974980	0.106456
H	0.7222487526049788 0.8915699581683212 0.4826313456266813	0.114744
H	0.5554936815737654 0.7295493060751375 0.4922988771374661	0.078200
H	0.6153768803316844 0.7874726806266009 0.4814558597840535	0.127899
H	0.4450458099623080 0.6156254325978160 0.4922617537955538	0.077811
H	0.3885928163969768 0.5540078111690425 0.4812228551068088	0.121687
H	0.2833152577563760 0.4490132952361919 0.4823313488974980	0.106456
H	0.2222487686049800 0.3915700571683258 0.4826313456266813	0.114744
H	0.0554936895737663 0.2295493550751376 0.4922988771374661	0.078200
H	0.1153768963316786 0.2874726146266028 0.4814558597840535	0.127899
H	0.9450457139623069 0.8843745674021840 0.5077382772044451	0.077811
H	0.8885928803969753 0.9459921888309575 0.5187771448931845	0.121687
H	0.7833152577563763 0.0509867217638130 0.5176686831025049	0.106456
H	0.7222487526049788 0.1084299678316798 0.5173686543733184	0.114743
H	0.5554936815737654 0.2704506279248646 0.5077011548625368	0.078199
H	0.6153768803316844 0.2125273363733968 0.5185441712159458	0.127898
H	0.4450458099623080 0.3843745674021842 0.5077382772044451	0.077811
H	0.3885928163969768 0.4459922218309636 0.5187771448931845	0.121687
H	0.2833152577563760 0.5509867047638080 0.5176686831025049	0.106456
H	0.2222487686049800 0.6084300418316788 0.5173686543733184	0.114743
H	0.0554936895737663 0.7704506939248625 0.5077011548625368	0.078199
H	0.1153768963316786 0.7125273193733991 0.5185441712159458	0.127899
H	0.0549542260376878 0.1156254165978146 0.0077382482044464	0.077811
H	0.1114071676030219 0.0540077821690366 0.0187771098931847	0.121687
H	0.2166847742436264 0.9490132952361920 0.0176686511025021	0.106456
H	0.2777512473950212 0.8915699581683212 0.0173686583733190	0.114743
H	0.4445063184262343 0.7295493060751375 0.0077011548625367	0.078200
H	0.3846231196683156 0.7874726806266009 0.0185441402159468	0.127899
H	0.5549542860376931 0.6156254325978160 0.0077382482044464	0.077810
H	0.6114071196030247 0.5540078111690425 0.0187771098931847	0.121687
H	0.7166847422436237 0.4490132952361919 0.0176686511025021	0.106456
H	0.7777512473950212 0.3915700571683258 0.0173686583733190	0.114743
H	0.9445063184262346 0.2295493550751376 0.0077011548625367	0.078199
H	0.8846231196683156 0.2874726146266028 0.0185441402159468	0.127899
Cu	0.5000000000000000 0.6730764596394195 0.7500000160000013	0.892179
Cu	-0.0000000000000000 0.1730764766394173 0.7500000160000013	0.892179
Cu	0.5000000000000000 0.3269235403605804 0.2500000000000000	0.892180
Cu	-0.0000000000000000 0.8269235403605805 0.2500000000000000	0.892179
Zr	0.5000000000000000 0.6726339953581046 0.2500000000000000	2.476580
Zr	-0.0000000000000000 0.1726339953581045 0.2500000000000000	2.476580
Zr	0.5000000000000000 0.3273660366418983 0.7500000160000013	2.476580
Zr	-0.0000000000000000 0.8273660046418954 0.7500000160000013	2.476580
F	0.5000000000000000 0.7417023606007173 0.2500000000000000	-0.659590
F	0.5000000000000000 0.6035786949877061 0.2500000000000000	-0.656515
F	-0.0000000000000000 0.2417023116007170 0.2500000000000000	-0.659590
F	-0.0000000000000000 0.1035786789877046 0.2500000000000000	-0.656515
F	0.5000000000000000 0.2582976883992830 0.7500000160000013	-0.659590
F	0.5000000000000000 0.3964212720122948 0.7500000160000013	-0.656515
F	-0.0000000000000000 0.7582976393992827 0.7500000160000013	-0.659590
F	-0.0000000000000000 0.8964213050122939 0.7500000160000013	-0.656515
F	0.5673732348936031 0.6729021711867863 0.2500000000000000	-0.659275
F	0.0673732548936049 0.1729022041867856 0.2500000000000000	-0.659275
F	0.4326267331063940 0.3270977628132152 0.7500000160000013	-0.659275
F	0.9326267651063969 0.8270978288132137 0.7500000160000013	-0.659275
F	0.4326267331063940 0.6729021711867863 0.2500000000000000	-0.659275
F	0.9326267651063969 0.1729022041867856 0.2500000000000000	-0.659275
F	0.5673732348936031 0.3270977628132152 0.7500000160000013	-0.659275
F	0.0673732548936049 0.8270978288132137 0.7500000160000013	-0.659275
F	0.5000000000000000 0.6728451682602474 0.5106471089829454	-0.601139
F	-0.0000000000000000 0.1728451852602453 0.5106471089829454	-0.601139
F	0.5000000000000000 0.3271548647397516 0.0106471089829456	-0.601139
F	-0.0000000000000000 0.8271548317397526 0.0106471089829456	-0.601139
F	0.5000000000000000 0.6728451682602474 -0.0106471129829460	-0.601139
F	-0.0000000000000000 0.1728451852602453 -0.0106471129829460	-0.601139
F	0.5000000000000000 0.3271548647397516 0.4893528590170588	-0.601139
F	-0.0000000000000000 0.8271548317397526 0.4893528590170588	-0.601139
N	0.5527071058545187 0.7266322700929585 0.7500000160000013	-0.273495
N	0.9477515681515029 0.1185561893999437 0.7500000160000013	-0.271515
N	0.0527070698545158 0.2266322540929577 0.7500000160000013	-0.273495
N	0.4477515681515025 0.6185561733999422 0.7500000160000013	-0.271515
N	0.4472929581454793 0.2733677299070411 0.2500000000000000	-0.273495
N	0.0522484398484981 0.8814438266000578 0.2500000000000000	-0.271515
N	0.9472928941454813 0.7733677299070415 0.2500000000000000	-0.273495
N	0.5522484318484971 0.3814438266000575 0.2500000000000000	-0.271515
N	0.4472929581454793 0.7266322700929585 0.7500000160000013	-0.273489
N	0.0522484398484981 0.1185561893999437 0.7500000160000013	-0.271508
N	0.9472928941454813 0.2266322540929577 0.7500000160000013	-0.273489
N	0.5522484318484971 0.6185561733999422 0.7500000160000013	-0.271508
N	0.5527071058545187 0.2733677299070411 0.2500000000000000	-0.273489
N	0.9477515681515029 0.8814438266000578 0.2500000000000000	-0.271508
N	0.0527070698545158 0.7733677299070415 0.2500000000000000	-0.273489
N	0.4477515681515025 0.3814438266000575 0.2500000000000000	-0.271508
	  	
