#======================================================================

# CRYSTAL DATA

#----------------------------------------------------------------------

data_VESTA_phase_1


_pd_phase_name                         ZrFSIX_1_Zn
_cell_length_a                         11.37974
_cell_length_b                         11.37974
_cell_length_c                         8.27629
_cell_angle_alpha                      90
_cell_angle_beta                       90
_cell_angle_gamma                      90
_symmetry_space_group_name_H-M         P 1
_symmetry_Int_Tables_number            1

loop_
_symmetry_equiv_pos_as_xyz
   x, y, z

loop_
   _atom_site_label
   _atom_site_fract_x
   _atom_site_fract_y
   _atom_site_fract_z
   _atom_site_charge
C	0.2506890757692766 0.4583683597777503 0.3720733356294635	0.105848
C	0.1285902120795608 0.4581098618423817 0.3668427166846788	-0.169171
C	0.7493110112307272 0.5416316832222495 0.3720733356294635	0.105847
C	0.8714098319204430 0.5418901381576187 0.3668427166846788	-0.169172
C	0.5416316832222495 0.2506890757692766 0.3720733356294635	0.105848
C	0.5418901381576187 0.1285902120795608 0.3668427166846788	-0.169171
C	0.4583683597777503 0.7493110112307272 0.3720733356294634	0.105848
C	0.4581098618423817 0.8714098319204430 0.3668427166846788	-0.169172
C	0.7493110112307272 0.4583683597777503 0.6279266343705341	0.105849
C	0.8714098319204430 0.4581098618423817 0.6331572543153151	-0.169171
C	0.2506890757692766 0.5416316832222495 0.6279266343705341	0.105849
C	0.1285902120795608 0.5418901381576187 0.6331572543153151	-0.169170
C	0.4583683597777503 0.2506890757692766 0.6279266343705341	0.105850
C	0.4581098618423817 0.1285902120795608 0.6331572543153151	-0.169170
C	0.5416316832222495 0.7493110112307272 0.6279266343705341	0.105849
C	0.5418901381576187 0.8714098319204430 0.6331572543153151	-0.169171
C	0.0649433964003173 0.5000000000000000 0.5000000000000000	0.101409
C	0.9350566795996820 0.5000000000000000 0.5000000000000000	0.101410
C	0.5000000000000000 0.0649433964003173 0.5000000000000000	0.101409
C	0.5000000000000000 0.9350566795996820 0.5000000000000000	0.101410
H	0.3020404876417139 0.4247399493278652 0.2708355497475924	0.093895
H	0.0841006567347898 0.4230204635704858 0.2606859229245192	0.125325
H	0.6979594693582860 0.5752600506721347 0.2708355497475924	0.093895
H	0.9158993592652116 0.5769795364295142 0.2606859229245192	0.125325
H	0.5752600506721347 0.3020404876417139 0.2708355497475924	0.093895
H	0.5769795364295142 0.0841006567347898 0.2606859229245192	0.125326
H	0.4247399493278652 0.6979594693582860 0.2708355497475924	0.093895
H	0.4230204635704858 0.9158993592652116 0.2606859229245192	0.125325
H	0.6979594693582860 0.4247399493278652 0.7291644212524087	0.093895
H	0.9158993592652116 0.4230204635704858 0.7393141360754824	0.125324
H	0.3020404876417139 0.5752600506721347 0.7291644212524087	0.093895
H	0.0841006567347898 0.5769795364295142 0.7393141360754824	0.125323
H	0.4247399493278652 0.3020404876417139 0.7291644212524087	0.093895
H	0.4230204635704858 0.0841006567347898 0.7393141360754824	0.125324
H	0.5752600506721347 0.6979594693582860 0.7291644212524087	0.093895
H	0.5769795364295142 0.9158993592652116 0.7393141360754824	0.125324
Zn	0.5000000000000000 0.5000000000000000 0.5000000000000000	0.744834
Zr	0.5000000000000000 0.5000000000000000 0.0000000000000000	2.465733
F	0.5000000000000000 0.5000000000000000 0.7497313006471880	-0.610137
F	0.5000000000000000 0.5000000000000000 0.2502686993528122	-0.610137
F	0.3733108116896935 0.3733108116896935 0.0000000000000000	-0.680418
F	0.6266891883103066 0.6266891883103066 0.0000000000000000	-0.680417
F	0.6266891883103066 0.3733108116896935 0.0000000000000000	-0.680417
F	0.3733108116896935 0.6266891883103066 0.0000000000000000	-0.680417
N	0.3108481692779699 0.5000000000000000 0.5000000000000000	-0.230359
N	0.6891518527220316 0.5000000000000000 0.5000000000000000	-0.230359
N	0.5000000000000000 0.3108481692779699 0.5000000000000000	-0.230360
N	0.5000000000000000 0.6891518527220316 0.5000000000000000	-0.230359
	  	
