#======================================================================

# CRYSTAL DATA

#----------------------------------------------------------------------

data_VESTA_phase_1


_pd_phase_name                         ZrFSIX_4_Cd_i
_cell_length_a                         24.44105
_cell_length_b                         21.22022
_cell_length_c                         9.42832
_cell_angle_alpha                      90
_cell_angle_beta                       90
_cell_angle_gamma                      90
_symmetry_space_group_name_H-M         P 1
_symmetry_Int_Tables_number            1

loop_
_symmetry_equiv_pos_as_xyz
   x, y, z

loop_
   _atom_site_label
   _atom_site_fract_x
   _atom_site_fract_y
   _atom_site_fract_z
   _atom_site_charge
C	0.4102780766300996 0.5931090021637424 0.6287362246961965	0.105737
C	0.3680103433760730 0.5494762784595059 0.6263644334364946	-0.170036
C	0.2756429241483916 0.4501756081611989 0.6256804125217512	-0.115984
C	0.2317209469218131 0.4087350254365813 0.6244545439614861	-0.114364
C	0.1351221329829813 0.3239920489262233 0.6231343760031582	-0.167890
C	0.0900206607529584 0.2843058571775427 0.6269377420837394	0.099178
C	0.9102781596300956 0.0931090131637466 0.6287362246961965	0.105737
C	0.8680103013760769 0.0494762204595087 0.6263644334364946	-0.170034
C	0.7756429451483972 0.9501756551611993 0.6256804125217512	-0.115985
C	0.7317209269218118 0.9087350714365778 0.6244545439614861	-0.114364
C	0.6351221329829820 0.8239920959262242 0.6231343760031582	-0.167890
C	0.5900206457529538 0.7843059501775400 0.6269377420837394	0.099178
C	0.5897219233699006 0.4068909518362538 0.1287362326961974	0.105738
C	0.6319896986239231 0.4505237675404973 0.1263644484364929	-0.170034
C	0.7243570548516028 0.5498243448388007 0.1256804205217520	-0.115995
C	0.7682790730781882 0.5912649745634189 0.1244545519614868	-0.114364
C	0.8648778670170180 0.6760079510737761 0.1231343830031624	-0.167889
C	0.9099793542470462 0.7156940968224603 0.1269377570837371	0.099177
C	0.0897219343699047 0.9068910448362579 0.1287362326961974	0.105740
C	0.1319896566239268 0.9505236755404974 0.1263644484364929	-0.170081
C	0.2243570968516067 0.0498243918388011 0.1256804205217520	-0.115999
C	0.2682790320781887 0.0912649515634206 0.1244545519614868	-0.114363
C	0.3648779090170221 0.1760079620737739 0.1231343830031624	-0.167889
C	0.4099793542470464 0.2156941668224591 0.1269377570837371	0.099177
C	0.5897219233699006 0.5931090021637424 0.8712637443038045	0.105737
C	0.6319896986239231 0.5494762784595059 0.8736355355635064	-0.170036
C	0.7243570548516028 0.4501756081611989 0.8743196184782478	-0.115983
C	0.7682790730781882 0.4087350254365813 0.8755454870385129	-0.114364
C	0.8648778670170180 0.3239920489262233 0.8768656549968408	-0.167890
C	0.9099793542470462 0.2843058571775427 0.8730622889162596	0.099178
C	0.0897219343699047 0.0931090131637466 0.8712637443038044	0.105737
C	0.1319896566239268 0.0494762204595087 0.8736355355635064	-0.170034
C	0.2243570968516067 0.9501756551611993 0.8743196184782478	-0.115983
C	0.2682790320781887 0.9087350714365778 0.8755454870385129	-0.114364
C	0.3648779090170221 0.8239920959262242 0.8768656549968408	-0.167890
C	0.4099793542470464 0.7843059501775400 0.8730622889162596	0.099178
C	0.4102780766300996 0.4068909518362537 0.3712637753038033	0.105737
C	0.3680103433760730 0.4505237675404972 0.3736355355635058	-0.170051
C	0.2756429241483916 0.5498243448388007 0.3743195874782483	-0.115995
C	0.2317209469218131 0.5912649745634189 0.3755454250385150	-0.114364
C	0.1351221329829813 0.6760079510737761 0.3768655929968355	-0.167889
C	0.0900206607529584 0.7156940968224603 0.3730622269162613	0.099177
C	0.9102781596300956 0.9068910448362579 0.3712637753038033	0.105740
C	0.8680103013760769 0.9505236755404974 0.3736355355635058	-0.170097
C	0.7756429451483972 0.0498243918388011 0.3743195874782483	-0.115999
C	0.7317209269218118 0.0912649515634205 0.3755454250385150	-0.114363
C	0.6351221329829820 0.1760079620737739 0.3768655929968355	-0.167889
C	0.5900206457529538 0.2156941668224591 0.3730622269162613	0.099177
C	0.5897219233699006 0.4068909518362537 0.3712637753038033	0.105738
C	0.6319896986239231 0.4505237675404972 0.3736355355635058	-0.170051
C	0.7243570548516028 0.5498243448388007 0.3743195874782483	-0.115995
C	0.7682790730781882 0.5912649745634189 0.3755454250385150	-0.114364
C	0.8648778670170180 0.6760079510737761 0.3768655929968355	-0.167890
C	0.9099793542470462 0.7156940968224603 0.3730622269162613	0.099179
C	0.0897219343699047 0.9068910448362579 0.3712637753038033	0.105740
C	0.1319896566239268 0.9505236755404974 0.3736355355635058	-0.170098
C	0.2243570968516067 0.0498243918388011 0.3743195874782483	-0.116000
C	0.2682790320781887 0.0912649515634206 0.3755454250385150	-0.114363
C	0.3648779090170221 0.1760079620737739 0.3768655929968355	-0.167890
C	0.4099793542470463 0.2156941668224591 0.3730622269162613	0.099179
C	0.4102780766300996 0.5931090021637424 0.8712637443038044	0.105738
C	0.3680103433760730 0.5494762784595059 0.8736355355635064	-0.170036
C	0.2756429241483916 0.4501756081611989 0.8743196184782478	-0.115983
C	0.2317209469218131 0.4087350254365813 0.8755454870385129	-0.114364
C	0.1351221329829813 0.3239920489262233 0.8768656549968408	-0.167890
C	0.0900206607529584 0.2843058571775427 0.8730622889162596	0.099180
C	0.9102781596300956 0.0931090131637466 0.8712637443038044	0.105738
C	0.8680103013760769 0.0494762204595087 0.8736355355635064	-0.170034
C	0.7756429451483972 0.9501756551611993 0.8743196184782478	-0.115983
C	0.7317209269218118 0.9087350714365778 0.8755454870385129	-0.114364
C	0.6351221329829820 0.8239920959262242 0.8768656549968408	-0.167890
C	0.5900206457529538 0.7843059501775400 0.8730622889162596	0.099180
C	0.4102780766300996 0.4068909518362537 0.1287362326961974	0.105740
C	0.3680103433760730 0.4505237675404972 0.1263644484364929	-0.170035
C	0.2756429241483916 0.5498243448388007 0.1256804205217520	-0.115995
C	0.2317209469218131 0.5912649745634189 0.1244545519614868	-0.114364
C	0.1351221329829813 0.6760079510737761 0.1231343830031624	-0.167890
C	0.0900206607529584 0.7156940968224603 0.1269377570837371	0.099179
C	0.9102781596300956 0.9068910448362579 0.1287362326961974	0.105742
C	0.8680103013760769 0.9505236755404974 0.1263644484364929	-0.170081
C	0.7756429451483972 0.0498243918388011 0.1256804205217520	-0.115999
C	0.7317209269218118 0.0912649515634205 0.1244545519614868	-0.114363
C	0.6351221329829820 0.1760079620737739 0.1231343830031624	-0.167890
C	0.5900206457529538 0.2156941668224591 0.1269377570837371	0.099179
C	0.5897219233699006 0.5931090021637424 0.6287362246961967	0.105739
C	0.6319896986239231 0.5494762784595059 0.6263644334364946	-0.170036
C	0.7243570548516028 0.4501756081611989 0.6256804125217512	-0.115984
C	0.7682790730781882 0.4087350254365813 0.6244545439614861	-0.114364
C	0.8648778670170180 0.3239920489262233 0.6231343760031582	-0.167890
C	0.9099793542470462 0.2843058571775427 0.6269377420837394	0.099180
C	0.0897219343699047 0.0931090131637466 0.6287362246961966	0.105738
C	0.1319896566239268 0.0494762204595087 0.6263644334364946	-0.170034
C	0.2243570968516067 0.9501756551611993 0.6256804125217512	-0.115985
C	0.2682790320781887 0.9087350714365778 0.6244545439614861	-0.114364
C	0.3648779090170221 0.8239920959262242 0.6231343760031582	-0.167890
C	0.4099793542470464 0.7843059501775400 0.6269377420837394	0.099180
C	0.3445855505968098 0.5235955556937876 0.7500000149999977	0.117639
C	0.2993571805875739 0.4752168833560657 0.7500000149999977	0.070806
C	0.2072658657957094 0.3873951041980342 0.7500000149999977	0.067964
C	0.1592779594451152 0.3450718967449636 0.7500000149999977	0.103881
C	0.8445855085968130 0.0235955386937898 0.7500000149999977	0.117638
C	0.7993572425875716 0.9752168363560655 0.7500000149999977	0.070806
C	0.7072658657957098 0.8873951271980325 0.7500000149999977	0.067964
C	0.6592779594451155 0.8450718277449611 0.7500000149999977	0.103881
C	0.6554144494031906 0.4764044903062090 0.2500000000000000	0.117637
C	0.7006427574124284 0.5247831166439342 0.2500000000000000	0.070813
C	0.7927341342042902 0.6126049198019679 0.2500000000000000	0.067966
C	0.8407220815548915 0.6549280802550383 0.2500000000000000	0.103881
C	0.1554144604031876 0.9764045373062095 0.2500000000000000	0.117696
C	0.2006428404124244 0.0247831196439310 0.2500000000000000	0.070854
C	0.2927341342042906 0.1126048728019675 0.2500000000000000	0.067965
C	0.3407220405548848 0.1549281142550409 0.2500000000000000	0.103881
C	0.6554144494031906 0.5235955556937876 0.7500000149999977	0.117639
C	0.7006427574124284 0.4752168833560657 0.7500000149999977	0.070806
C	0.7927341342042902 0.3873951041980342 0.7500000149999977	0.067964
C	0.8407220815548915 0.3450718967449636 0.7500000149999977	0.103881
C	0.1554144604031876 0.0235955386937898 0.7500000149999977	0.117639
C	0.2006428404124244 0.9752168363560655 0.7500000149999977	0.070806
C	0.2927341342042905 0.8873951271980325 0.7500000149999977	0.067965
C	0.3407220405548847 0.8450718277449611 0.7500000149999977	0.103881
C	0.3445855505968098 0.4764044903062090 0.2500000000000000	0.117637
C	0.2993571805875739 0.5247831166439342 0.2500000000000000	0.070814
C	0.2072658657957094 0.6126049198019679 0.2500000000000000	0.067966
C	0.1592779594451152 0.6549280802550383 0.2500000000000000	0.103881
C	0.8445855085968130 0.9764045373062095 0.2500000000000000	0.117696
C	0.7993572425875716 0.0247831196439310 0.2500000000000000	0.070854
C	0.7072658657957098 0.1126048728019675 0.2500000000000000	0.067965
C	0.6592779594451155 0.1549281142550409 0.2500000000000000	0.103881
H	0.4273225765303609 0.6110160227389710 0.5294444551684734	0.100335
H	0.3552520566358285 0.5375034285594879 0.5208525033977993	0.106038
H	0.2907717441948199 0.4618314693564291 0.5220765772750822	0.086351
H	0.2167169990086264 0.3933083412711992 0.5214940280234489	0.104113
H	0.1509031605557076 0.3377333061205915 0.5198401547048520	0.120410
H	0.0711109069948867 0.2672702333462812 0.5291682975895349	0.102734
H	0.9273225345303573 0.1110160577389704 0.5294444551684734	0.100335
H	0.8552520156358285 0.0375033645594825 0.5208525033977993	0.106039
H	0.7907717231948216 0.9618314693564293 0.5220765772750822	0.086350
H	0.7167169570086228 0.8933082722712046 0.5214940280234489	0.104113
H	0.6509031505557066 0.8377333061205909 0.5198401547048520	0.120410
H	0.5711109379948863 0.7672702103462827 0.5291682975895349	0.102734
H	0.5726774234696392 0.3889839772610287 0.0294445171684711	0.100334
H	0.6447479433641716 0.4624966184405126 0.0208525033977992	0.106040
H	0.7092282768051784 0.5381684846435669 0.0220766392750804	0.086355
H	0.7832830429913772 0.6066916357287949 0.0214939670234470	0.104112
H	0.8490968494442934 0.6622666478794053 0.0198401547048522	0.120409
H	0.9288890210051138 0.7327297896537173 0.0291682665895359	0.102734
H	0.0726774294696396 0.8889839772610290 0.0294445171684711	0.100335
H	0.1447479843641712 0.9624966184405125 0.0208525033977992	0.106045
H	0.2092282768051781 0.0381685276435670 0.0220766392750804	0.086349
H	0.2832830009913739 0.1066916697287979 0.0214939670234470	0.104113
H	0.3490968494442930 0.1622666708794029 0.0198401547048522	0.120409
H	0.4288890620051145 0.2327297666537186 0.0291682665895359	0.102734
H	0.5726774234696392 0.6110160227389710 -0.0294444741684712	0.100335
H	0.6447479433641716 0.5375034285594879 -0.0208525303978049	0.106039
H	0.7092282768051784 0.4618314693564291 -0.0220765952750768	0.086348
H	0.7832830429913772 0.3933083412711992 -0.0214940210234443	0.104112
H	0.8490968494442934 0.3377333061205915 -0.0198401547048521	0.120409
H	0.9288890210051138 0.2672702333462812 -0.0291683045895390	0.102734
H	0.0726774294696396 0.1110160577389704 -0.0294444741684712	0.100335
H	0.1447479843641712 0.0375033645594825 -0.0208525303978049	0.106040
H	0.2092282768051781 0.9618314693564293 -0.0220765952750768	0.086347
H	0.2832830009913739 0.8933082722712046 -0.0214940210234443	0.104113
H	0.3490968494442930 0.8377333061205909 -0.0198401547048521	0.120410
H	0.4288890620051145 0.7672702103462827 -0.0291683045895389	0.102734
H	0.4273225765303609 0.3889839772610287 0.4705555138315280	0.100335
H	0.3552520566358285 0.4624966184405126 0.4791475276021999	0.106057
H	0.2907717441948199 0.5381684846435669 0.4779233917249187	0.086354
H	0.2167169990086264 0.6066916357287949 0.4785059409765525	0.104112
H	0.1509031605557076 0.6622666478794053 0.4801598142951489	0.120409
H	0.0711109069948867 0.7327297896537173 0.4708317024104652	0.102734
H	0.9273225345303573 0.8889839772610290 0.4705555138315280	0.100335
H	0.8552520156358285 0.9624966184405125 0.4791475276021999	0.106061
H	0.7907717231948216 0.0381685276435670 0.4779233917249187	0.086348
H	0.7167169570086228 0.1066916697287979 0.4785059409765525	0.104113
H	0.6509031505557066 0.1622666708794029 0.4801598142951489	0.120409
H	0.5711109379948863 0.2327297666537186 0.4708317024104652	0.102734
H	0.5726774234696392 0.3889839772610287 0.4705555138315279	0.100335
H	0.6447479433641716 0.4624966184405126 0.4791475276021999	0.106057
H	0.7092282768051784 0.5381684846435669 0.4779233917249187	0.086354
H	0.7832830429913772 0.6066916357287949 0.4785059409765525	0.104113
H	0.8490968494442934 0.6622666478794053 0.4801598142951489	0.120410
H	0.9288890210051138 0.7327297896537173 0.4708317024104652	0.102734
H	0.0726774294696396 0.8889839772610290 0.4705555138315280	0.100335
H	0.1447479843641712 0.9624966184405125 0.4791475276021999	0.106061
H	0.2092282768051781 0.0381685276435670 0.4779233917249187	0.086349
H	0.2832830009913739 0.1066916697287979 0.4785059409765525	0.104113
H	0.3490968494442930 0.1622666708794029 0.4801598142951489	0.120410
H	0.4288890620051145 0.2327297666537186 0.4708317024104652	0.102734
H	0.4273225765303609 0.6110160227389710 -0.0294444741684712	0.100335
H	0.3552520566358285 0.5375034285594879 -0.0208525303978049	0.106040
H	0.2907717441948199 0.4618314693564291 -0.0220765952750768	0.086349
H	0.2167169990086264 0.3933083412711992 -0.0214940210234443	0.104113
H	0.1509031605557076 0.3377333061205915 -0.0198401547048521	0.120410
H	0.0711109069948867 0.2672702333462812 -0.0291683045895389	0.102734
H	0.9273225345303573 0.1110160577389704 -0.0294444741684712	0.100335
H	0.8552520156358285 0.0375033645594825 -0.0208525303978049	0.106040
H	0.7907717231948216 0.9618314693564293 -0.0220765952750768	0.086347
H	0.7167169570086228 0.8933082722712046 -0.0214940210234443	0.104113
H	0.6509031505557066 0.8377333061205909 -0.0198401547048521	0.120410
H	0.5711109379948863 0.7672702103462827 -0.0291683045895389	0.102734
H	0.4273225765303609 0.3889839772610287 0.0294445171684711	0.100334
H	0.3552520566358285 0.4624966184405126 0.0208525033977992	0.106040
H	0.2907717441948199 0.5381684846435669 0.0220766392750804	0.086355
H	0.2167169990086264 0.6066916357287949 0.0214939670234470	0.104113
H	0.1509031605557076 0.6622666478794053 0.0198401547048522	0.120410
H	0.0711109069948867 0.7327297896537173 0.0291682665895359	0.102734
H	0.9273225345303573 0.8889839772610290 0.0294445171684711	0.100334
H	0.8552520156358285 0.9624966184405125 0.0208525033977992	0.106044
H	0.7907717231948216 0.0381685276435670 0.0220766392750804	0.086349
H	0.7167169570086228 0.1066916697287979 0.0214939670234470	0.104113
H	0.6509031505557066 0.1622666708794029 0.0198401547048522	0.120410
H	0.5711109379948863 0.2327297666537186 0.0291682665895359	0.102734
H	0.5726774234696392 0.6110160227389710 0.5294444551684734	0.100335
H	0.6447479433641716 0.5375034285594879 0.5208525033977993	0.106038
H	0.7092282768051784 0.4618314693564291 0.5220765772750822	0.086351
H	0.7832830429913772 0.3933083412711992 0.5214940280234489	0.104113
H	0.8490968494442934 0.3377333061205915 0.5198401547048520	0.120410
H	0.9288890210051138 0.2672702333462812 0.5291682975895349	0.102734
H	0.0726774294696396 0.1110160577389704 0.5294444551684734	0.100335
H	0.1447479843641712 0.0375033645594825 0.5208525033977993	0.106039
H	0.2092282768051781 0.9618314693564293 0.5220765772750822	0.086350
H	0.2832830009913739 0.8933082722712046 0.5214940280234489	0.104113
H	0.3490968494442930 0.8377333061205909 0.5198401547048520	0.120410
H	0.4288890620051145 0.7672702103462827 0.5291682975895349	0.102734
Cd	0.5000000000000000 0.6891916325103307 0.7500000149999977	0.827257
Cd	0.0000000000000000 0.1891916905103281 0.7500000149999977	0.827257
Cd	0.5000000000000000 0.3108082974896709 0.2500000000000000	0.827257
Cd	0.0000000000000000 0.8108083674896693 0.2500000000000000	0.827257
F	0.5000000000000000 0.6849900812824734 0.4770580328689148	-0.663612
F	0.0000000000000000 0.1849901162824729 0.4770580328689148	-0.663612
F	0.5000000000000000 0.3150098957175210 -0.0229419671310854	-0.663613
F	0.0000000000000000 0.8150099187175266 -0.0229419671310855	-0.663613
F	0.5000000000000000 0.6849900812824734 0.0229419531310842	-0.663612
F	0.0000000000000000 0.1849901162824729 0.0229419531310842	-0.663612
F	0.5000000000000000 0.3150098957175210 0.5229419371310823	-0.663612
F	0.0000000000000000 0.8150099187175266 0.5229419371310824	-0.663612
F	0.4404750407001665 0.7503133620982193 0.2500000000000000	-0.699686
F	0.5588476244080430 0.6147832341028748 0.2500000000000000	-0.689948
F	0.9404750407001665 0.2503133620982188 0.2500000000000000	-0.699686
F	0.0588476454080483 0.1147832341028751 0.2500000000000000	-0.689948
F	0.5595249182998336 0.2496866149017828 0.7500000149999977	-0.699686
F	0.4411523755919569 0.3852167658971247 0.7500000149999977	-0.689949
F	0.0595249702998380 0.7496866379017807 0.7500000149999977	-0.699686
F	0.9411523755919570 0.8852167658971252 0.7500000149999977	-0.689949
F	0.5595249182998336 0.7503133620982193 0.2500000000000000	-0.699686
F	0.4411523755919569 0.6147832341028748 0.2500000000000000	-0.689948
F	0.0595249702998380 0.2503133620982188 0.2500000000000000	-0.699686
F	0.9411523755919570 0.1147832341028751 0.2500000000000000	-0.689948
F	0.4404750407001665 0.2496866149017828 0.7500000149999977	-0.699686
F	0.5588476244080430 0.3852167658971247 0.7500000149999977	-0.689949
F	0.9404750407001665 0.7496866379017807 0.7500000149999977	-0.699686
F	0.0588476454080483 0.8852167658971252 0.7500000149999977	-0.689949
N	0.4319485659075025 0.6148163614007784 0.7500000149999977	-0.233390
N	0.5678034199498413 0.7646601849290263 0.7500000149999977	-0.246224
N	0.9319485249074954 0.1148163494007767 0.7500000149999977	-0.233390
N	0.0678033939498390 0.2646601619290206 0.7500000149999977	-0.246225
N	0.5680514340924977 0.3851836385992223 0.2500000000000000	-0.233390
N	0.4321965800501587 0.2353398380709796 0.2500000000000000	-0.246224
N	0.0680514340924974 0.8851836385992216 0.2500000000000000	-0.233391
N	0.9321966210501585 0.7353398150709737 0.2500000000000000	-0.246224
N	0.5680514340924977 0.6148163614007784 0.7500000149999977	-0.233390
N	0.4321965800501587 0.7646601849290263 0.7500000149999977	-0.246224
N	0.0680514340924973 0.1148163494007767 0.7500000149999977	-0.233390
N	0.9321966210501585 0.2646601619290206 0.7500000149999977	-0.246225
N	0.4319485659075025 0.3851836385992222 0.2500000000000000	-0.233390
N	0.5678034199498413 0.2353398380709796 0.2500000000000000	-0.246224
N	0.9319485249074954 0.8851836385992216 0.2500000000000000	-0.233391
N	0.0678033939498390 0.7353398150709737 0.2500000000000000	-0.246224
Zr	0.5000000000000000 0.6829917939588195 0.2500000000000000	2.491391
Zr	0.0000000000000000 0.1829918179588217 0.2500000000000000	2.491391
Zr	0.5000000000000000 0.3170081590411800 0.7500000149999977	2.491392
Zr	0.0000000000000000 0.8170082060411805 0.7500000149999977	2.491392
	  	
