#======================================================================

# CRYSTAL DATA

#----------------------------------------------------------------------

data_VESTA_phase_1


_pd_phase_name                         ZrFSIX_7_Fe
_cell_length_a                         18.87344
_cell_length_b                         18.87344
_cell_length_c                         8.60889
_cell_angle_alpha                      90
_cell_angle_beta                       90
_cell_angle_gamma                      90
_symmetry_space_group_name_H-M         P 1
_symmetry_Int_Tables_number            1

loop_
_symmetry_equiv_pos_as_xyz
   x, y, z

loop_
   _atom_site_label
   _atom_site_fract_x
   _atom_site_fract_y
   _atom_site_fract_z
   _atom_site_charge
C	0.6658644802888122 0.8691752573660791 0.6903284666904098	0.102020
C	0.6140854955245720 0.9214137195730032 0.6934837318723984	-0.168880
C	0.5814789245732931 0.8876489196840002 0.4344853384335957	-0.164146
C	0.6335168654206028 0.8360363577064794 0.4400786978724830	0.098555
C	0.8341355197111878 0.6308247426339209 0.6903284666904098	0.102020
C	0.8859145544754250 0.5785863314269974 0.6934837318723984	-0.168880
C	0.9185209744267092 0.6123511313159934 0.4344853384335957	-0.164146
C	0.8664831345793972 0.6639636422935206 0.4400786978724830	0.098555
C	0.6308247426339209 0.6658644802888122 0.6903284666904098	0.102021
C	0.5785863314269974 0.6140854955245720 0.6934837318723984	-0.168880
C	0.6123511313159934 0.5814789245732931 0.4344853384335957	-0.164146
C	0.6639636422935206 0.6335168654206028 0.4400786978724830	0.098555
C	0.8691752573660791 0.8341355197111878 0.6903284666904098	0.102021
C	0.9214137195730032 0.8859145544754249 0.6934837318723984	-0.168880
C	0.8876489196840002 0.9185209744267092 0.4344853384335957	-0.164146
C	0.8360363577064794 0.8664831345793972 0.4400786978724830	0.098555
C	0.3341354947111893 0.3691752073660752 0.3096715633095928	0.102057
C	0.3859145044754280 0.4214137195730033 0.3065162981276042	-0.168971
C	0.4185210754267069 0.3876488686840070 0.5655146615664045	-0.164149
C	0.3664830835794033 0.3360363577064795 0.5599213321275189	0.098556
C	0.1658645052888108 0.1308247796339271 0.3096715633095928	0.102057
C	0.1140854955245720 0.0785862804269967 0.3065162981276042	-0.168972
C	0.0814789055732880 0.1123511313159930 0.5655146615664045	-0.164149
C	0.1335169164205966 0.1639636302935197 0.5599213321275189	0.098556
C	0.3691752073660752 0.1658645052888108 0.3096715633095928	0.102057
C	0.4214137195730033 0.1140854955245720 0.3065162981276042	-0.168971
C	0.3876488686840070 0.0814789055732880 0.5655146615664045	-0.164149
C	0.3360363577064795 0.1335169164205966 0.5599213321275189	0.098557
C	0.1308247796339271 0.3341354947111893 0.3096715633095928	0.102057
C	0.0785862804269967 0.3859145044754280 0.3065162981276042	-0.168971
C	0.1123511313159930 0.4185210754267069 0.5655146615664045	-0.164149
C	0.1639636302935197 0.3664830835794033 0.5599213321275189	0.098557
C	0.4324480845499180 0.0706757261043318 0.4370459809019933	0.139594
C	0.4875810293775497 0.0168048639425476 0.4358870817732179	-0.122212
C	0.0675519154500821 0.4293242668956713 0.4370459809019933	0.139594
C	0.0124189386224477 0.4831950720574542 0.4358870817732179	-0.122212
C	0.4293242668956713 0.4324480845499180 0.4370459809019933	0.139594
C	0.4831950720574542 0.4875810293775497 0.4358870817732179	-0.122212
C	0.0706757261043318 0.0675519154500821 0.4370459809019933	0.139594
C	0.0168048639425476 0.0124189386224477 0.4358870817732179	-0.122212
C	0.5675519154500819 0.5706757331043284 0.5629540190980066	0.139564
C	0.5124190216224440 0.5168048779425422 0.5641129472267812	-0.122184
C	0.9324480345499211 0.9293242168956675 0.5629540190980066	0.139564
C	0.9875810293775495 0.9831951730574585 0.5641129472267812	-0.122184
C	0.5706757331043284 0.9324480345499211 0.5629540190980066	0.139564
C	0.5168048779425422 0.9875810293775495 0.5641129472267812	-0.122184
C	0.9293242168956675 0.5675519154500819 0.5629540190980066	0.139564
C	0.9831951730574585 0.5124190216224440 0.5641129472267812	-0.122184
H	0.6998085419046391 0.8592557390733624 0.7901035958738934	0.092330
H	0.6079870098827386 0.9534816612619748 0.7979351147927660	0.122068
H	0.5490162189905200 0.8917884472091984 0.3302754369965052	0.121812
H	0.6432335521775208 0.8012042243768884 0.3417755779922645	0.092171
H	0.8001914580953609 0.6407442609266376 0.7901035958738934	0.092330
H	0.8920129901172614 0.5465183897380259 0.7979351147927660	0.122068
H	0.9509838320094807 0.6082116037908023 0.3302754369965052	0.121812
H	0.8567664478224792 0.6987957756231116 0.3417755779922645	0.092171
H	0.6407442609266376 0.6998085419046391 0.7901035958738934	0.092330
H	0.5465183897380259 0.6079870098827386 0.7979351147927660	0.122068
H	0.6082116037908023 0.5490162189905200 0.3302754369965051	0.121812
H	0.6987957756231116 0.6432335521775208 0.3417755779922645	0.092171
H	0.8592557390733624 0.8001914580953609 0.7901035958738934	0.092330
H	0.9534816612619748 0.8920129901172614 0.7979351147927660	0.122068
H	0.8917884472091984 0.9509838320094807 0.3302754369965051	0.121812
H	0.8012042243768884 0.8567664478224792 0.3417755779922645	0.092171
H	0.3001914840953632 0.3592556630733630 0.2098963891261086	0.092348
H	0.3920129141172556 0.4534816102619739 0.2020648412072300	0.122086
H	0.4509838320094807 0.3917884472091984 0.6697245330034993	0.121812
H	0.3567664728224847 0.3012042503768907 0.6582244220077355	0.092171
H	0.1998085289046343 0.1407443629266389 0.2098963891261086	0.092348
H	0.1079870608827389 0.0465184057380274 0.2020648412072300	0.122086
H	0.0490161619905188 0.1082115787908037 0.6697245330034993	0.121812
H	0.1432335521775208 0.1987957376231084 0.6582244220077355	0.092171
H	0.3592556630733630 0.1998085289046343 0.2098963891261086	0.092348
H	0.4534816102619739 0.1079870608827389 0.2020648412072300	0.122086
H	0.3917884472091984 0.0490161619905188 0.6697245330034993	0.121812
H	0.3012042503768907 0.1432335521775208 0.6582244220077355	0.092171
H	0.1407443629266389 0.3001914840953632 0.2098963891261086	0.092348
H	0.0465184057380274 0.3920129141172556 0.2020648412072300	0.122086
H	0.1082115787908037 0.4509838320094807 0.6697245330034992	0.121812
H	0.1987957376231084 0.3567664728224847 0.6582244220077355	0.092171
H	0.5072161538255391 0.0011922771313168 0.3214015294400241	0.105946
H	0.9927838971744616 0.4988076948686809 0.3214015294400241	0.105946
H	0.4988076948686809 0.5072161538255391 0.3214015294400241	0.105946
H	0.0011922771313168 0.9927838971744616 0.3214015294400241	0.105946
H	0.4927838461744609 0.5011922551313223 0.6785985005599711	0.105943
H	0.0072161448255419 0.9988076948686807 0.6785985005599711	0.105943
H	0.5011922551313223 0.0072161448255419 0.6785985005599711	0.105943
H	0.9988076948686807 0.4927838461744609 0.6785985005599711	0.105943
Fe	0.2500000000000000 0.2500000000000000 0.4336859366904040	0.873776
Fe	0.7500000000000000 0.7500000000000000 0.5663140633095961	0.873771
Zr	0.2500000000000000 0.2500000000000000 0.9351984828115311	2.465542
Zr	0.7500000000000000 0.7500000000000000 0.0648015021884708	2.465542
F	0.2500000000000000 0.2500000000000000 0.1751098703912694	-0.610345
F	0.2500000000000000 0.2500000000000000 0.6952155620689072	-0.610396
F	0.7500000000000000 0.7500000000000000 0.8248901596087328	-0.610343
F	0.7500000000000000 0.7500000000000000 0.3047844379310927	-0.610396
F	0.3275157359038420 0.3257346526757216 0.9350355448136891	-0.684024
F	0.1724842890961568 0.1742653723242770 0.9350355448136891	-0.684024
F	0.1742653723242770 0.3275157359038420 0.9350355448136891	-0.684024
F	0.3257346526757216 0.1724842890961568 0.9350355448136891	-0.684024
F	0.6724842890961569 0.8257346526757211 0.0649644551863111	-0.684024
F	0.8275157109038431 0.6742653473242789 0.0649644551863111	-0.684024
F	0.8257346526757211 0.8275157109038431 0.0649644551863111	-0.684024
F	0.6742653473242789 0.6724842890961569 0.0649644551863111	-0.684024
N	0.3268447852417177 0.1754778576532298 0.4343003325601721	-0.264869
N	0.1731552397582808 0.3245221673467685 0.4343003325601721	-0.264869
N	0.3245221673467685 0.3268447852417177 0.4343003325601721	-0.264868
N	0.1754778576532298 0.1731552397582808 0.4343003325601721	-0.264869
N	0.6731552147582823 0.6754778326532311 0.5656996674398275	-0.264864
N	0.8268447852417177 0.8245221673467689 0.5656996674398275	-0.264864
N	0.6754778326532311 0.8268447852417177 0.5656996674398275	-0.264864
N	0.8245221673467689 0.6731552147582823 0.5656996674398275	-0.264864
	  	
