#======================================================================

# CRYSTAL DATA

#----------------------------------------------------------------------

data_VESTA_phase_1


_pd_phase_name                         ZrFSIX_3_Cu
_cell_length_a                         13.87296
_cell_length_b                         13.87296
_cell_length_c                         8.41325
_cell_angle_alpha                      90
_cell_angle_beta                       90
_cell_angle_gamma                      90
_symmetry_space_group_name_H-M         P 1
_symmetry_Int_Tables_number            1

loop_
_symmetry_equiv_pos_as_xyz
   x, y, z

loop_
   _atom_site_label
   _atom_site_fract_x
   _atom_site_fract_y
   _atom_site_fract_z
   _atom_site_charge
C	0.2705852808727824 0.4497714340708290 0.6327986614486186	0.071156
C	0.2294147191272176 0.0502285699291713 0.6327986614486186	0.071156
C	0.2294147191272176 0.4497714340708290 0.3672013065513787	0.071157
C	0.2705852808727824 0.0502285699291713 0.3672013065513787	0.071158
C	0.0502285699291713 0.2705852808727824 0.3672013065513787	0.071161
C	0.4497714340708290 0.2294147191272176 0.3672013065513787	0.071160
C	0.4497714340708290 0.2705852808727824 0.6327986614486186	0.071163
C	0.0502285699291713 0.2294147191272176 0.6327986614486186	0.071163
C	0.9497713660708307 0.2294147191272176 0.6327986614486186	0.071194
C	0.5502286339291693 0.2705852808727824 0.6327986614486186	0.071195
C	0.5502286339291693 0.2294147191272176 0.3672013065513787	0.071196
C	0.9497713660708307 0.2705852808727824 0.3672013065513787	0.071196
C	0.7294147361272155 0.0502285699291713 0.3672013065513787	0.071161
C	0.7705852638727845 0.4497714340708290 0.3672013065513787	0.071161
C	0.7705852638727845 0.0502285699291713 0.6327986614486186	0.071163
C	0.7294147361272155 0.4497714340708290 0.6327986614486186	0.071162
C	0.4497714340708290 0.7294147361272155 0.6327986614486186	0.071156
C	0.0502285699291713 0.7705852638727845 0.6327986614486186	0.071157
C	0.0502285699291713 0.7294147361272155 0.3672013065513787	0.071159
C	0.4497714340708290 0.7705852638727845 0.3672013065513787	0.071158
C	0.2294147191272176 0.5502286339291693 0.3672013065513787	0.071199
C	0.2705852808727824 0.9497713660708307 0.3672013065513787	0.071199
C	0.2705852808727824 0.5502286339291693 0.6327986614486186	0.071201
C	0.2294147191272176 0.9497713660708307 0.6327986614486186	0.071200
C	0.7705852638727845 0.9497713660708307 0.6327986614486186	0.071194
C	0.7294147361272155 0.5502286339291693 0.6327986614486186	0.071195
C	0.7294147361272155 0.9497713660708307 0.3672013065513787	0.071195
C	0.7705852638727845 0.5502286339291693 0.3672013065513787	0.071196
C	0.5502286339291693 0.7705852638727845 0.3672013065513787	0.071199
C	0.9497713660708307 0.7294147361272155 0.3672013065513787	0.071198
C	0.9497713660708307 0.7705852638727845 0.6327986614486186	0.071200
C	0.5502286339291693 0.7294147361272155 0.6327986614486186	0.071201
H	0.2874370851503090 0.4099375973742211 0.7409057453381631	0.116030
H	0.2125628808496881 0.0900624026257790 0.7409057453381631	0.116030
H	0.2125628808496881 0.4099375973742211 0.2590942236618382	0.116030
H	0.2874370851503090 0.0900624026257790 0.2590942236618382	0.116030
H	0.0900624026257790 0.2874370851503090 0.2590942236618382	0.116030
H	0.4099375973742211 0.2125628808496881 0.2590942236618382	0.116030
H	0.4099375973742211 0.2874370851503090 0.7409057453381631	0.116030
H	0.0900624026257790 0.2125628808496881 0.7409057453381631	0.116030
H	0.9099376653742196 0.2125628808496881 0.7409057453381631	0.116028
H	0.5900623346257804 0.2874370851503090 0.7409057453381631	0.116028
H	0.5900623346257804 0.2125628808496881 0.2590942236618382	0.116028
H	0.9099376653742196 0.2874370851503090 0.2590942236618382	0.116028
H	0.7125628468496922 0.0900624026257790 0.2590942236618382	0.116030
H	0.7874371531503078 0.4099375973742211 0.2590942236618382	0.116030
H	0.7874371531503078 0.0900624026257790 0.7409057453381631	0.116030
H	0.7125628468496922 0.4099375973742211 0.7409057453381631	0.116030
H	0.4099375973742211 0.7125628468496922 0.7409057453381631	0.116030
H	0.0900624026257790 0.7874371531503078 0.7409057453381631	0.116030
H	0.0900624026257790 0.7125628468496922 0.2590942236618382	0.116030
H	0.4099375973742211 0.7874371531503078 0.2590942236618382	0.116030
H	0.2125628808496881 0.5900623346257804 0.2590942236618382	0.116028
H	0.2874370851503090 0.9099376653742196 0.2590942236618382	0.116028
H	0.2874370851503090 0.5900623346257804 0.7409057453381631	0.116028
H	0.2125628808496881 0.9099376653742196 0.7409057453381631	0.116028
H	0.7874371531503078 0.9099376653742196 0.7409057453381631	0.116028
H	0.7125628468496922 0.5900623346257804 0.7409057453381631	0.116028
H	0.7125628468496922 0.9099376653742196 0.2590942236618382	0.116028
H	0.7874371531503078 0.5900623346257804 0.2590942236618382	0.116028
H	0.5900623346257804 0.7874371531503078 0.2590942236618382	0.116028
H	0.9099376653742196 0.7125628468496922 0.2590942236618382	0.116028
H	0.9099376653742196 0.7874371531503078 0.7409057453381631	0.116028
H	0.5900623346257804 0.7125628468496922 0.7409057453381631	0.116028
Cu	0.2500000000000000 0.2500000000000000 0.5000000000000000	0.734233
Cu	0.7500000340000028 0.2500000000000000 0.5000000000000000	0.734235
Cu	0.2500000000000000 0.7500000340000028 0.5000000000000000	0.734235
Cu	0.7500000340000028 0.7500000340000028 0.5000000000000000	0.734237
Zr	0.2500000000000000 0.2500000000000000 0.0000000000000000	2.439551
Zr	0.7500000340000028 0.2500000000000000 0.0000000000000000	2.439557
Zr	0.2500000000000000 0.7500000340000028 0.0000000000000000	2.439557
Zr	0.7500000340000028 0.7500000340000028 0.0000000000000000	2.439561
F	0.2500000000000000 0.2500000000000000 0.7526138433460913	-0.655471
F	0.2500000000000000 0.2500000000000000 0.2473861566539087	-0.655471
F	0.3524621578503344 0.3524621578503344 0.9671598952791661	-0.651610
F	0.1475378421496585 0.1475378421496585 0.9671598952791661	-0.651608
F	0.1475378421496585 0.3524621578503344 0.0328401257208320	-0.651609
F	0.3524621578503344 0.1475378421496585 0.0328401257208320	-0.651609
F	0.7500000340000028 0.2500000000000000 0.7526138433460913	-0.655471
F	0.7500000340000028 0.2500000000000000 0.2473861566539087	-0.655472
F	0.8524621918503441 0.3524621578503344 0.0328401257208320	-0.651609
F	0.6475378081496559 0.1475378421496585 0.0328401257208320	-0.651607
F	0.6475378081496559 0.3524621578503344 0.9671598952791661	-0.651608
F	0.8524621918503441 0.1475378421496585 0.9671598952791661	-0.651608
F	0.2500000000000000 0.7500000340000028 0.7526138433460913	-0.655471
F	0.2500000000000000 0.7500000340000028 0.2473861566539087	-0.655472
F	0.3524621578503415 0.8524621918503441 0.0328401257208320	-0.651609
F	0.1475378421496585 0.6475378081496559 0.0328401257208320	-0.651607
F	0.1475378421496585 0.8524621918503441 0.9671598952791661	-0.651608
F	0.3524621578503344 0.6475378081496559 0.9671598952791661	-0.651608
F	0.7500000340000028 0.7500000340000028 0.7526138433460913	-0.655472
F	0.7500000340000028 0.7500000340000028 0.2473861566539087	-0.655472
F	0.8524621918503441 0.8524621918503441 0.9671598952791661	-0.651608
F	0.6475378081496559 0.6475378081496559 0.9671598952791661	-0.651606
F	0.6475378081496559 0.8524621918503441 0.0328401257208320	-0.651606
F	0.8524621918503441 0.6475378081496559 0.0328401257208320	-0.651606
N	0.3997908723037357 0.2500000000000000 0.5000000000000000	-0.188516
N	0.1002091276962642 0.2500000000000000 0.5000000000000000	-0.188516
N	0.2500000000000000 0.3997908723037357 0.5000000000000000	-0.188514
N	0.2500000000000000 0.1002091276962642 0.5000000000000000	-0.188514
N	0.8997908723037359 0.2500000000000000 0.5000000000000000	-0.188524
N	0.6002091276962641 0.2500000000000000 0.5000000000000000	-0.188523
N	0.7500000340000028 0.3997908723037357 0.5000000000000000	-0.188515
N	0.7500000340000028 0.1002091276962642 0.5000000000000000	-0.188515
N	0.3997908723037357 0.7500000340000028 0.5000000000000000	-0.188515
N	0.1002091276962642 0.7500000340000028 0.5000000000000000	-0.188515
N	0.2500000000000000 0.8997908723037359 0.5000000000000000	-0.188524
N	0.2500000000000000 0.6002091276962641 0.5000000000000000	-0.188524
N	0.8997908723037359 0.7500000340000028 0.5000000000000000	-0.188525
N	0.6002091276962641 0.7500000340000028 0.5000000000000000	-0.188524
N	0.7500000340000028 0.8997908723037359 0.5000000000000000	-0.188523
N	0.7500000340000028 0.6002091276962641 0.5000000000000000	-0.188522
	  	
