#======================================================================

# CRYSTAL DATA

#----------------------------------------------------------------------

data_VESTA_phase_1


_pd_phase_name                         ZrFSIX_1_Cu
_cell_length_a                         11.16950
_cell_length_b                         11.16950
_cell_length_c                         8.40955
_cell_angle_alpha                      90
_cell_angle_beta                       90
_cell_angle_gamma                      90
_symmetry_space_group_name_H-M         P 1
_symmetry_Int_Tables_number            1

loop_
_symmetry_equiv_pos_as_xyz
   x, y, z

loop_
   _atom_site_label
   _atom_site_fract_x
   _atom_site_fract_y
   _atom_site_fract_z
   _atom_site_charge
C	0.2551403259928477 0.4586163525934388 0.3731713467123842	0.104980
C	0.1307710122388534 0.4584685797786053 0.3684489236574225	-0.165793
C	0.7448597610071558 0.5413836904065613 0.3731713467123842	0.104980
C	0.8692290317611504 0.5415314202213947 0.3684489236574225	-0.165793
C	0.5413836904065614 0.2551403259928477 0.3731713467123842	0.104980
C	0.5415314202213947 0.1307710122388534 0.3684489236574225	-0.165793
C	0.4586163525934388 0.7448597610071558 0.3731713467123842	0.104980
C	0.4584685797786053 0.8692290317611504 0.3684489236574225	-0.165793
C	0.7448597610071558 0.4586163525934388 0.6268286232876132	0.104980
C	0.8692290317611504 0.4584685797786053 0.6315510473425715	-0.165793
C	0.2551403259928477 0.5413836904065613 0.6268286232876132	0.104980
C	0.1307710122388534 0.5415314202213947 0.6315510473425715	-0.165793
C	0.4586163525934388 0.2551403259928477 0.6268286232876132	0.104980
C	0.4584685797786053 0.1307710122388534 0.6315510473425715	-0.165793
C	0.5413836904065613 0.7448597610071558 0.6268286232876132	0.104980
C	0.5415314202213947 0.8692290317611504 0.6315510473425715	-0.165793
C	0.0660503747376933 0.5000000000000000 0.5000000000000000	0.102508
C	0.9339497012623061 0.5000000000000000 0.5000000000000000	0.102509
C	0.5000000000000000 0.0660503747376933 0.5000000000000000	0.102508
C	0.5000000000000000 0.9339497012623061 0.5000000000000000	0.102509
H	0.3070711991938040 0.4253942340506311 0.2725860643634772	0.098840
H	0.0853098074243581 0.4238604463917918 0.2635100345139257	0.128360
H	0.6929287578061959 0.5746057659493691 0.2725860643634772	0.098841
H	0.9146902085756432 0.5761395536082081 0.2635100345139257	0.128359
H	0.5746057659493691 0.3070711991938040 0.2725860643634772	0.098840
H	0.5761395536082081 0.0853098074243581 0.2635100345139257	0.128360
H	0.4253942340506311 0.6929287578061959 0.2725860643634772	0.098841
H	0.4238604463917918 0.9146902085756432 0.2635100345139257	0.128360
H	0.6929287578061959 0.4253942340506311 0.7274139066365241	0.098841
H	0.9146902085756432 0.4238604463917918 0.7364900244860759	0.128359
H	0.3070711991938040 0.5746057659493691 0.7274139066365241	0.098840
H	0.0853098074243581 0.5761395536082081 0.7364900244860759	0.128359
H	0.4253942340506311 0.3070711991938040 0.7274139066365241	0.098840
H	0.4238604463917918 0.0853098074243581 0.7364900244860759	0.128360
H	0.5746057659493691 0.6929287578061959 0.7274139066365241	0.098840
H	0.5761395536082081 0.9146902085756432 0.7364900244860759	0.128359
Cu	0.5000000000000000 0.5000000000000000 0.5000000000000000	0.732157
Zr	0.5000000000000000 0.5000000000000000 -0.0000000000000000	2.469190
F	0.5000000000000000 0.5000000000000000 0.7555690128496458	-0.649817
F	0.5000000000000000 0.5000000000000000 0.2444309871503543	-0.649817
F	0.3706230199542170 0.3706230199542170 -0.0000000000000000	-0.684758
F	0.6293769800457829 0.6293769800457829 -0.0000000000000000	-0.684758
F	0.6293769800457829 0.3706230199542170 -0.0000000000000000	-0.684758
F	0.3706230199542170 0.6293769800457829 -0.0000000000000000	-0.684758
N	0.3163637093596123 0.5000000000000000 0.5000000000000000	-0.225953
N	0.6836363126403893 0.5000000000000000 0.5000000000000000	-0.225953
N	0.5000000000000000 0.3163637093596123 0.5000000000000000	-0.225953
N	0.5000000000000000 0.6836363126403893 0.5000000000000000	-0.225953
	  	
