#======================================================================

# CRYSTAL DATA

#----------------------------------------------------------------------

data_VESTA_phase_1


_pd_phase_name                         ZrFSIX_14_Cd_i
_cell_length_a                         13.71425
_cell_length_b                         13.70459
_cell_length_c                         8.56655
_cell_angle_alpha                      90.60706
_cell_angle_beta                       90.44350
_cell_angle_gamma                      89.47507
_symmetry_space_group_name_H-M         P 1
_symmetry_Int_Tables_number            1

loop_
_symmetry_equiv_pos_as_xyz
   x, y, z

loop_
   _atom_site_label
   _atom_site_fract_x
   _atom_site_fract_y
   _atom_site_fract_z
   _atom_site_charge
C	0.5774486643187243 0.2626260223683630 0.3564759147255650	-0.178224
C	0.4763179383468037 0.2662147342927551 0.3585037121982595	0.110474
C	0.9340659937556105 0.2857795046457459 0.4141839462414476	-0.161558
C	0.0349924843262175 0.2795491041541104 0.4018677456682035	0.121708
C	0.2612189655681075 0.5777953192753376 0.3584016502948565	-0.179884
C	0.2645836035159022 0.4765666929121490 0.3607471161696548	0.109243
C	0.2933431619018007 0.9344575431474341 0.4111085849780799	-0.161650
C	0.2862030998702408 0.0354377906441642 0.3995543804643589	0.120206
C	0.9224417280931474 0.2395580940789121 0.1415315093010534	-0.180517
C	0.0235981750985389 0.2363536239979396 0.1391596711131630	0.109687
C	0.5658658383008042 0.2095408792337920 0.0869311174574537	-0.160726
C	0.4649002096597858 0.2163073972738180 0.0987419499643330	0.121252
C	0.2111303194154512 0.5656536046698173 0.0876968732712160	-0.162839
C	0.2177603230697868 0.4646889218339508 0.0997746774352591	0.119838
C	0.2368298292632394 0.9223557863256305 0.1436140044276176	-0.178054
C	0.2331070066556587 0.0235710680593089 0.1416141547974399	0.108600
C	0.4230641820476865 0.7398228098262721 0.6436691061366787	-0.179618
C	0.5241822705176329 0.7374905571787665 0.6411337859974364	0.107824
C	0.0658588162544221 0.7284559476992062 0.5795239863060668	-0.159252
C	0.9648556045928500 0.7325635183190419 0.5926394384693502	0.123442
C	0.7401380407840404 0.4225495241026070 0.6428876567924313	-0.178516
C	0.7377347855759286 0.5237468048393088 0.6406926183401357	0.109808
C	0.7173113360374456 0.0653074369882694 0.5823890889626725	-0.158255
C	0.7230330468485472 0.9642438421879463 0.5942161355073915	0.121000
C	0.0772975277898802 0.7582305030570505 0.8578017316714102	-0.180104
C	0.9761856544384818 0.7598387768446712 0.8606231879262878	0.109079
C	0.4345029557935842 0.7770961141666999 0.9197120080191540	-0.159694
C	0.5355214080422041 0.7722530574511098 0.9070001929697977	0.124679
C	0.7772244124104283 0.4340945673090778 0.9188513379008635	-0.161435
C	0.7721018662150102 0.5351358459734991 0.9065837731251196	0.123506
C	0.7621448690664840 0.0768610392550693 0.8555211161637083	-0.178754
C	0.7650466074196162 0.9756782159826052 0.8573705448899599	0.109534
C	0.6232282045644195 0.2346956512422593 0.2167092897026400	0.190775
C	0.8766983289677844 0.2637638899160988 0.2829602691897963	0.193491
C	0.2349999667652809 0.6232812412096437 0.2179845381629167	0.195294
C	0.2665076165574156 0.8768283502716350 0.2823052009090864	0.192558
C	0.3771958681278596 0.7598817093050558 0.7867346248331706	0.193484
C	0.1231412524324964 0.7422421347774609 0.7135096213860750	0.193331
C	0.7599493939510801 0.3767401832676033 0.7857394857914508	0.193051
C	0.7381965321389203 0.1226763707738497 0.7141831993605434	0.193868
H	0.6199854176294077 0.2781412654736297 0.4614860766017322	0.106892
H	0.4367819572040130 0.2861273003472453 0.4643015770985572	0.100079
H	0.9001400261332679 0.3068730778604359 0.5239950510923844	0.128352
H	0.0818425668120625 0.2954011167170590 0.5021650807405871	0.091892
H	0.2752253354022429 0.6208047503511606 0.4637082264907708	0.108399
H	0.2830088119737590 0.4372573360098440 0.4672149397490090	0.099844
H	0.3188146269365512 0.9006959689703218 0.5185258080974513	0.128668
H	0.3056143630781745 0.0825383629876694 0.4982244962902339	0.092657
H	0.8798259792608752 0.2267672194634117 0.0356213605783337	0.107220
H	0.0631063934233364 0.2193276294290169 0.0321713462695560	0.100012
H	0.5998691682711700 0.1855505638163314 0.9786563415817889	0.128166
H	0.4180235793645630 0.1980989890687348 -0.0005646119463467	0.092211
H	0.1883031018898184 0.5993480815027324 0.9787780381876809	0.128331
H	0.2005249828417664 0.4175935237375935 0.0001062881545248	0.092142
H	0.2202629888272813 0.8794318291863176 0.0392461342662644	0.107982
H	0.2119393337424839 0.0629048134082193 0.0364205277524305	0.100389
H	0.3808103204380461 0.7287718101609040 0.5368155559216360	0.104201
H	0.5638299421694151 0.7236907861376466 0.5332212798658424	0.099630
H	0.0999417916511067 0.7151049220899475 0.4669481106054180	0.128408
H	0.9181790920457225 0.7230675777082254 0.4903167059099818	0.089910
H	0.7298653050705455 0.3801176124714655 0.5358369484712183	0.103774
H	0.7241910043332019 0.5634078970009395 0.5329675732407764	0.099985
H	0.6970773147898066 0.0994562796983438 0.4725824715259890	0.127143
H	0.7078708668484087 0.9175020868195088 0.4933908373526373	0.089708
H	0.1196262126418887 0.7666890067544446 0.9651890566993691	0.103741
H	0.9365646146237779 0.7704287844724171 0.9693825945856326	0.099773
H	0.4003552571232625 0.7937611177876114 0.0311655889027508	0.128188
H	0.5822060909862165 0.7846529056379765 0.0085944786350941	0.088934
H	0.7941095004413681 0.3999660934251052 0.0300306619687277	0.128158
H	0.7843149180153323 0.5818253759875894 0.0083920119749502	0.089850
H	0.7753025300149907 0.1192368708676431 0.9617532152318489	0.104669
H	0.7817385177094488 0.9359738888200849 0.9639970120998493	0.100072
N	0.7744703791873015 0.2716742167918528 0.3013021644170974	-0.103267
N	0.2754041235002807 0.7744639565391871 0.2993019286525860	-0.104406
N	0.7255225077865833 0.2263869995119559 0.1985598598322929	-0.101987
N	0.2264752464479484 0.7255697065753118 0.2008527958219134	-0.103589
N	0.2253022369815049 0.7356242406119954 0.6928408769257020	-0.102670
N	0.7300852938842953 0.2249675073554236 0.6951406780470187	-0.103590
N	0.2749848534008419 0.7670468880997352 0.8072388983345389	-0.100312
N	0.7676197197767185 0.2745159550166975 0.8049411444937630	-0.100255
N	0.4210323269351131 0.2445308221271464 0.2319544092685552	-0.236916
N	0.0788825370817060 0.2548605646323350 0.2669228408925881	-0.236244
N	0.2444126995692449 0.4210193620651212 0.2337261677148997	-0.235139
N	0.2562011261290998 0.0790849757810992 0.2673311557581683	-0.236385
N	0.5794450633148801 0.7529438849458802 0.7701306056679459	-0.233614
N	0.9209111034035952 0.7477185805069645 0.7307349402020819	-0.233978
N	0.7528462729568733 0.5790713169193540 0.7699143754802039	-0.234721
N	0.7464449403011637 0.9203677439730630 0.7293110385749588	-0.233397
F	0.3545797409657087 0.1428823782945173 0.7486670980591096	-0.679389
F	0.1457138289848970 0.3571348823148655 0.7508444585938614	-0.679620
F	0.3535030965737317 0.3511444821171172 0.7972042926264631	-0.690057
F	0.1459618006241928 0.1493422374038025 0.7029170234662808	-0.690529
F	0.6435727897927478 0.8548397070405697 0.2510225827530142	-0.677556
F	0.8563934628576247 0.6451952340637671 0.2486369744632381	-0.677785
F	0.6491480570638615 0.6476474091242002 0.1932619067153619	-0.684588
F	0.8514556069697303 0.8517027926830784 0.3067241279788290	-0.684045
F	0.2715548492113735 0.2703752699716433 0.5115316266104903	-0.628644
F	0.2285477671885399 0.2295810759955968 -0.0119117209540677	-0.628055
F	0.7270370655963847 0.7260072355093977 0.4870469790760091	-0.627400
F	0.7729689518642273 0.7741052988291820 0.0129613196430411	-0.626973
Zr	0.2500970003472109 0.2499685533413298 0.7499354745260061	2.472098
Zr	0.7500748984599952 0.7500189928647619 0.2498475221597093	2.465518
Cd	0.2499703977404140 0.2500170937225626 0.2498180365727219	0.832503
Cd	0.7502007819095756 0.7497418572428686 0.7499983066068369	0.828954
	  	
