#======================================================================

# CRYSTAL DATA

#----------------------------------------------------------------------

data_VESTA_phase_1


_pd_phase_name                         ZrFSIX_13_Co_i
_cell_length_a                         15.37370
_cell_length_b                         15.38083
_cell_length_c                         8.15364
_cell_angle_alpha                      89.98422
_cell_angle_beta                       89.98639
_cell_angle_gamma                      89.36172
_symmetry_space_group_name_H-M         P 1
_symmetry_Int_Tables_number            1

loop_
_symmetry_equiv_pos_as_xyz
   x, y, z

loop_
   _atom_site_label
   _atom_site_fract_x
   _atom_site_fract_y
   _atom_site_fract_z
   _atom_site_charge
C	0.5435310551194964 0.6860002044551129 0.8776651088715577	0.104633
C	0.5465810940152634 0.7764213043169217 0.8765284695404357	-0.145934
C	0.4595330432593884 0.3171515128148799 0.8825862502215160	0.104800
C	0.4573030499769155 0.2267785949262882 0.8820129736381086	-0.139494
C	0.8167453267996878 0.9707200178149159 0.3734974185955833	0.105998
C	0.7264406631327732 0.9691277195855411 0.3669218395814086	-0.132480
C	0.3159565400737337 0.5428620757034214 0.8759121204075427	0.101901
C	0.2255264248971644 0.5468878530749876 0.8738498362342745	-0.144303
C	0.1854905939917800 0.9707323995570110 0.3607217672960222	0.103215
C	0.2758765515428262 0.9699454595120408 0.3583301907587374	-0.131552
C	0.6849178401188100 0.4614002133769605 0.8896623988377457	0.104443
C	0.7752790260552178 0.4587099864477862 0.8870543544635584	-0.137898
C	0.4550280770134741 0.6863809585257268 0.1085923252104985	0.103640
C	0.4522704238765867 0.7767087799644006 0.1129047984924330	-0.135234
C	0.5410135241433829 0.3185229936315586 0.1227118133639155	0.101597
C	0.5444458244716741 0.2281078431150090 0.1276779313283472	-0.145039
C	0.1824345154222498 0.0232291163757485 0.6277225591834338	0.107311
C	0.2726808950713552 0.0241117096313584 0.6363646948579055	-0.134503
C	0.6831591412194307 0.5466409850203411 0.1249028705712166	0.105581
C	0.7736315686436868 0.5496984937365550 0.1278647937233947	-0.143848
C	0.8148860074686427 0.0292824194329906 0.6359627083954479	0.101100
C	0.7244781298561679 0.0302805425467125 0.6397775595429998	-0.132088
C	0.3160078104407874 0.4563924764060065 0.1097194648371612	0.103513
C	0.2256191831093698 0.4544938881158116 0.1126996228414510	-0.136104
C	0.9647383531153831 0.8141497501198466 0.6238561365634272	0.106699
C	0.9637743612592665 0.7238731712111679 0.6307162884787300	-0.133958
C	0.9801432902576283 0.1827746253583326 0.6397209884649891	0.101887
C	0.9789072068923912 0.2730410482531964 0.6438534500602632	-0.132600
C	0.0239911937208950 0.8124602554207295 0.3617839532199015	0.101830
C	0.0252775518434232 0.7221711427379404 0.3577663400625412	-0.131658
C	0.0317807464707012 0.1812038563857754 0.3718829041983548	0.108071
C	0.0319981637017137 0.2714648102617029 0.3646884005651062	-0.134954
C	0.0045184059039284 0.3183144983810640 0.5031447019510643	0.045136
C	0.0017885320063360 0.4135712573224961 0.5007052800677438	0.254586
C	0.4997548125293104 0.8226658964369429 0.9956898087373646	0.061039
C	0.5003708912576826 0.9185081179201157 0.0002714431854661	0.245093
C	0.9951673749044627 0.6768728239834216 0.4952786218771971	0.040573
C	0.9970802288375376 0.5814804034462510 0.4971920397300775	0.246945
C	0.5010644544902029 0.1813437171415027 0.0062933065040137	0.060375
C	0.5010396813610297 0.0854057217027968 0.0078596432571868	0.248538
C	0.6792219338316499 0.9994380099220213 0.5028524305875077	0.040086
C	0.5838283560589027 0.9976506668770933 0.5031273828104361	0.248249
C	0.1794387869672351 0.5013788219969634 0.9934945061451689	0.059308
C	0.0835161401985790 0.5026048935494150 0.9958862975967759	0.248195
C	0.3204434043449612 0.9967148805072764 0.4990270828059100	0.043324
C	0.4157406258710805 0.9960690049867148 0.5020990181119348	0.253934
C	0.8205554059105272 0.5043695842634816 0.0076492850107642	0.059130
C	0.9165460581825543 0.5040790081897630 0.0053717295363615	0.246637
H	0.5768122834305576 0.6478276080035583 0.7832856029115501	0.105388
H	0.5841356073448735 0.8100998577384104 0.7830526769600579	0.128139
H	0.4289135040219199 0.3548133058168795 0.7843793287853499	0.106220
H	0.4241402295793967 0.1917754046205385 0.7847175746644085	0.123133
H	0.8553554066564079 0.9473507911866206 0.2700576725883720	0.099743
H	0.6935641861867164 0.9450777179891308 0.2578815171739915	0.125978
H	0.3539402951433920 0.5750034090918874 0.7808108234174499	0.106222
H	0.1918908270612519 0.5841261350611305 0.7791247211103358	0.128634
H	0.1492721595532722 0.9503837698871079 0.2526411434133647	0.097689
H	0.3108416342983559 0.9497196980349626 0.2482713162836651	0.120657
H	0.6471514621450146 0.4294941042433164 0.7943188634573437	0.105467
H	0.8103243371737807 0.4241471442620549 0.7906064174654722	0.123621
H	0.4217925865829937 0.6481264399256572 0.2016217722066257	0.105490
H	0.4166299620626057 0.8111572807581409 0.2087909094542114	0.121412
H	0.5713117515979175 0.3570458891002204 0.2191903933558577	0.106495
H	0.5793231315527861 0.1950658174412747 0.2263309466943315	0.128456
H	0.1434037786641371 0.0444554393807171 0.7321954650616509	0.099005
H	0.3048792920901934 0.0446790502605041 0.7486744088853150	0.125271
H	0.6444867633457584 0.5786762505622776 0.2201302019368168	0.105284
H	0.8067010013229300 0.5858886111264356 0.2238283110904901	0.128346
H	0.8515154912637920 0.0516479029672108 0.7420931130724435	0.099004
H	0.6899880889770261 0.0536750333270379 0.7481108116423788	0.124674
H	0.3543747423747685 0.4237039858987772 0.2045152398386615	0.106231
H	0.1911861325400175 0.4196554647165740 0.2086427991309596	0.121739
H	0.9410465074659533 0.8527418552654171 0.7270416909753797	0.101128
H	0.9401182253828443 0.6908364045829178 0.7399593536346194	0.125425
H	0.9603598219719631 0.1459109962940630 0.7473790733838820	0.096140
H	0.9587293482575339 0.3073680688389005 0.7545256787122087	0.123907
H	0.0468091981616790 0.8491766487216350 0.2561235915493617	0.096747
H	0.0490830211592026 0.6878723650580026 0.2496443109477618	0.123841
H	0.0528159265607914 0.1425808237704720 0.2667377361699799	0.101751
H	0.0517109415436385 0.3045873202226990 0.2527473494297083	0.124190
N	0.9521738948914936 0.5402652673076975 0.6163703199667810	-0.136058
N	0.4228697370528768 0.0461647490880830 0.0087436915222978	-0.153829
N	0.5413554716528932 0.0419681392028518 0.6226790087976295	-0.137416
N	0.9573517873253620 0.4258220509868705 0.0022544948123867	-0.151902
N	0.0435424204519750 0.5402515098125205 0.3788181207569857	-0.136614
N	0.5787827833264029 0.0436275373845157 0.0102273455395282	-0.152388
N	0.9567623572198519 0.5816902694387903 0.0032043429325029	-0.150800
N	0.5438593175097659 0.9499417543180223 0.3865110930016823	-0.135171
N	0.0467763270337801 0.4547795391414677 0.3818379393051024	-0.135356
N	0.5785315206433389 0.9577934952308137 0.0015634420260824	-0.151429
N	0.4582836004140312 0.9485810813558335 0.3870742868048299	-0.133896
N	0.0426498287588364 0.5808431010533471 0.9940591897198914	-0.151705
N	0.9537408324674603 0.4547027266762477 0.6168021882866693	-0.135721
N	0.4226886402398300 0.9602247211710255 0.0086289835938138	-0.149174
N	0.0433419684660247 0.4250045018038911 0.0008320080198887	-0.151896
N	0.4557737554597479 0.0418020746933219 0.6213014775974972	-0.138105
N	0.0053989938803265 0.1375162917622824 0.5061592429556782	-0.188092
N	0.4992843033606292 0.6416382248131832 0.9927544264075062	-0.198011
N	0.9949343505355289 0.8578432515455333 0.4924582177376909	-0.188382
N	0.4999197865434518 0.3623200238614529 0.0016397405033438	-0.200241
N	0.8605123817179011 0.0002297162529041 0.5053617930707497	-0.188230
N	0.3604753173877270 0.4991878079333808 0.9927862796000839	-0.198059
N	0.1393245929504721 0.9965514690549092 0.4929634453456502	-0.187129
N	0.6395104312073332 0.5039065470470985 0.0069189592688507	-0.199491
Co	-0.0000435189595952 0.9977616301927652 0.4986776104241184	0.623138
Co	0.4998903660828054 0.5019825247424777 0.9984792667298273	0.635746
Zr	-0.0006331539609207 0.9961368418262131 0.9987353156254282	2.458195
Zr	0.5002421492547848 0.5037728287821795 0.4985766460933277	2.480312
F	0.9953335608855883 0.0048370452123824 0.2517964633956964	-0.615822
F	0.5066863386551215 0.4978840508931283 0.7530382064382556	-0.624189
F	0.0043846709297289 0.9889030576522292 0.7453681024704882	-0.616209
F	0.4932281607019023 0.5079308863770169 0.2439060546106741	-0.624667
F	0.0926901803377057 0.0884068150274643 0.9943987152191193	-0.665009
F	0.5922773335525737 0.5980841266367839 0.4982430445766751	-0.682877
F	0.9059302646124594 0.9040440367876517 0.0034690417388097	-0.665795
F	0.4091011290205500 0.4088069454315407 0.5018188224130099	-0.684473
F	0.9070935817720356 0.0910503220422538 0.9707655951692171	-0.657435
F	0.4052374864864702 0.5968190223386914 0.5136198204417473	-0.683374
F	0.0926582789950008 0.9024097304235352 0.0280761837381247	-0.656912
F	0.5959489610260196 0.4116502240790015 0.4797951646153993	-0.682677
	  	
