#======================================================================

# CRYSTAL DATA

#----------------------------------------------------------------------

data_VESTA_phase_1


_pd_phase_name                         ZrFSIX_16_Cd_i
_cell_length_a                         25.47157
_cell_length_b                         25.47157
_cell_length_c                         8.48795
_cell_angle_alpha                      90
_cell_angle_beta                       90
_cell_angle_gamma                      90
_symmetry_space_group_name_H-M         P 1
_symmetry_Int_Tables_number            1

loop_
_symmetry_equiv_pos_as_xyz
   x, y, z

loop_
   _atom_site_label
   _atom_site_fract_x
   _atom_site_fract_y
   _atom_site_fract_z
   _atom_site_charge
C	0.4796372265544206 0.3820287899073128 0.3773174291982498	0.101895
C	0.4787717478675352 0.3275393684221622 0.3727788513775902	-0.166180
C	0.9560247041740877 0.6116729784389836 0.9445675423921633	-0.122309
C	0.9561856150588843 0.5571282122876878 0.9453884075358983	-0.125795
C	0.5203628114455753 0.6179712480926832 0.3773174291982498	0.101896
C	0.5212282521324652 0.6724606695778337 0.3727788513775902	-0.166180
C	0.0439752198259131 0.3883269825610169 0.9445675423921633	-0.122294
C	0.0438144039411138 0.4428718257123153 0.9453884075358983	-0.125848
C	0.6179712480926832 0.4796372265544206 0.3773174291982498	0.101895
C	0.6724606695778337 0.4787717478675352 0.3727788513775902	-0.166180
C	0.3883269825610169 0.9560247041740877 0.9445675423921633	-0.122309
C	0.4428718257123153 0.9561856150588843 0.9453884075358983	-0.125794
C	0.3820287899073128 0.5203628114455753 0.3773174291982498	0.101896
C	0.3275393684221622 0.5212282521324652 0.3727788513775902	-0.166180
C	0.6116729784389836 0.0439752198259131 0.9445675423921633	-0.122294
C	0.5571282122876878 0.0438144039411138 0.9453884075358983	-0.125849
C	0.5203628114455753 0.3820287899073128 0.6226825708017506	0.101896
C	0.5212282521324652 0.3275393684221622 0.6272211166224066	-0.166179
C	0.0439752198259131 0.6116729784389836 0.0554324696078375	-0.122294
C	0.0438144039411138 0.5571282122876878 0.0546115684640993	-0.125849
C	0.4796372265544206 0.6179712480926832 0.6226825708017506	0.101895
C	0.4787717478675352 0.6724606695778337 0.6272211166224066	-0.166179
C	0.9560247041740877 0.3883269825610169 0.0554324696078375	-0.122309
C	0.9561856150588843 0.4428718257123153 0.0546115684640993	-0.125794
C	0.3820287899073128 0.4796372265544206 0.6226825708017506	0.101896
C	0.3275393684221622 0.4787717478675352 0.6272211166224066	-0.166179
C	0.6116729784389836 0.9560247041740877 0.0554324696078375	-0.122309
C	0.5571282122876878 0.9561856150588843 0.0546115684640993	-0.125795
C	0.6179712480926832 0.5203628114455753 0.6226825708017506	0.101896
C	0.6724606695778337 0.5212282521324652 0.6272211166224066	-0.166179
C	0.3883269825610169 0.0439752198259131 0.0554324696078375	-0.122294
C	0.4428718257123153 0.0438144039411138 0.0546115684640993	-0.125848
C	0.5439752578259163 0.8883269445610207 0.5554324896078322	-0.122308
C	0.5438143849411157 0.9428718257123153 0.5546115604640991	-0.125794
C	0.0203627654455787 0.1179711910926892 0.1226825708017501	0.101895
C	0.0212282501324648 0.1724606315778377 0.1272211326224085	-0.166179
C	0.4560247801740870 0.1116730264389803 0.5554324896078322	-0.122294
C	0.4561855770588881 0.0571281592876870 0.5546115604640991	-0.125848
C	0.9796371885544247 0.8820287519073168 0.1226825708017501	0.101895
C	0.9787717478675348 0.8275393684221624 0.1272211326224085	-0.166180
C	0.1116730264389803 0.5439752578259163 0.5554324896078322	-0.122308
C	0.0571281592876870 0.5438143849411157 0.5546115604640991	-0.125794
C	0.8820287519073168 0.0203627654455787 0.1226825708017501	0.101895
C	0.8275393684221624 0.0212282501324648 0.1272211326224085	-0.166180
C	0.8883269445610207 0.4560247801740870 0.5554324896078322	-0.122294
C	0.9428718257123153 0.4561855770588881 0.5546115604640991	-0.125848
C	0.1179711910926892 0.9796371885544247 0.1226825708017501	0.101895
C	0.1724606315778377 0.9787717478675348 0.1272211326224085	-0.166179
C	0.4560247801740870 0.8883269445610207 0.4445675423921636	-0.122294
C	0.4561855770588881 0.9428718257123153 0.4453884395359012	-0.125848
C	0.9796371885544247 0.1179711910926892 0.8773174611982449	0.101896
C	0.9787717478675348 0.1724606315778377 0.8727788513775907	-0.166179
C	0.5439752578259163 0.1116730264389803 0.4445675423921636	-0.122308
C	0.5438143849411157 0.0571281592876870 0.4453884395359012	-0.125794
C	0.0203627654455787 0.8820287519073168 0.8773174611982449	0.101896
C	0.0212282501324648 0.8275393684221624 0.8727788513775906	-0.166179
C	0.8883269445610207 0.5439752578259163 0.4445675423921636	-0.122308
C	0.9428718257123153 0.5438143849411157 0.4453884395359012	-0.125794
C	0.1179711910926892 0.0203627654455787 0.8773174611982449	0.101896
C	0.1724606315778377 0.0212282501324648 0.8727788513775907	-0.166179
C	0.1116730264389803 0.4560247801740870 0.4445675423921636	-0.122294
C	0.0571281592876870 0.4561855770588881 0.4453884395359012	-0.125848
C	0.8820287519073168 0.9796371885544247 0.8773174611982449	0.101896
C	0.8275393684221624 0.9787717478675348 0.8727788513775907	-0.166179
C	0.5000000000000000 0.2990676943278118 0.5000000000000000	0.174408
C	0.5000000000000000 0.2433815874655178 0.5000000000000000	-0.113209
C	0.5000000000000000 0.1955013554495264 0.5000000000000000	-0.093372
C	0.5000000000000000 0.1398300113817383 0.5000000000000000	0.122596
C	0.5000000000000000 0.0289353022911961 0.5000000000000000	0.065543
C	-0.0000000000000000 0.7990676753278061 0.0000000000000000	0.174408
C	-0.0000000000000000 0.7433815674655158 0.0000000000000000	-0.113209
C	-0.0000000000000000 0.6955013174495300 0.0000000000000000	-0.093372
C	-0.0000000000000000 0.6398299733817354 0.0000000000000000	0.122597
C	-0.0000000000000000 0.5289353162911973 0.0000000000000000	0.065543
C	0.5000000000000000 0.7009322866721908 0.5000000000000000	0.174408
C	0.5000000000000000 0.7566184705344803 0.5000000000000000	-0.113209
C	0.5000000000000000 0.8044986445504739 0.5000000000000000	-0.093372
C	0.5000000000000000 0.8601699886182614 0.5000000000000000	0.122597
C	0.5000000000000000 0.9710646837088027 0.5000000000000000	0.065543
C	-0.0000000000000000 0.2009323056721884 0.0000000000000000	0.174408
C	-0.0000000000000000 0.2566184125344821 0.0000000000000000	-0.113209
C	-0.0000000000000000 0.3044986245504721 0.0000000000000000	-0.093372
C	-0.0000000000000000 0.3601699886182617 0.0000000000000000	0.122597
C	-0.0000000000000000 0.4710647217088059 0.0000000000000000	0.065543
C	0.7009322866721908 0.5000000000000000 0.5000000000000000	0.174408
C	0.7566184705344803 0.5000000000000000 0.5000000000000000	-0.113209
C	0.8044986445504739 0.5000000000000000 0.5000000000000000	-0.093372
C	0.8601699886182614 0.5000000000000000 0.5000000000000000	0.122597
C	0.9710646837088027 0.5000000000000000 0.5000000000000000	0.065543
C	0.2009323056721884 -0.0000000000000000 0.0000000000000000	0.174408
C	0.2566184125344821 -0.0000000000000000 0.0000000000000000	-0.113209
C	0.3044986245504721 -0.0000000000000000 0.0000000000000000	-0.093372
C	0.3601699886182617 -0.0000000000000000 0.0000000000000000	0.122597
C	0.4710647217088059 -0.0000000000000000 0.0000000000000000	0.065543
C	0.2990676943278118 0.5000000000000000 0.5000000000000000	0.174408
C	0.2433815874655178 0.5000000000000000 0.5000000000000000	-0.113209
C	0.1955013554495264 0.5000000000000000 0.5000000000000000	-0.093372
C	0.1398300113817383 0.5000000000000000 0.5000000000000000	0.122596
C	0.0289353022911961 0.5000000000000000 0.5000000000000000	0.065543
C	0.7990676753278061 -0.0000000000000000 0.0000000000000000	0.174408
C	0.7433815674655158 -0.0000000000000000 0.0000000000000000	-0.113209
C	0.6955013174495300 -0.0000000000000000 0.0000000000000000	-0.093372
C	0.6398299733817354 -0.0000000000000000 0.0000000000000000	0.122597
C	0.5289353162911973 -0.0000000000000000 0.0000000000000000	0.065543
H	0.4640154248762036 0.4054243162998891 0.2799467227104803	0.099009
H	0.4620317057365508 0.3071897543653880 0.2717076357453905	0.128637
H	0.9220527294791638 0.6331416197249582 0.9001130134635006	0.111719
H	0.9223945131613355 0.5356870043260229 0.8994858060720400	0.106433
H	0.5359845751237963 0.5945756837001112 0.2799467227104803	0.099010
H	0.5379683322634518 0.6928103216346111 0.2717076357453905	0.128637
H	0.0779472515208381 0.3668583802750417 0.9001130134635006	0.111718
H	0.0776055158386631 0.4643130346739767 0.8994858060720400	0.106467
H	0.5945756837001112 0.4640154248762036 0.2799467227104803	0.099011
H	0.6928103216346111 0.4620317057365508 0.2717076357453905	0.128637
H	0.3668583802750417 0.9220527294791638 0.9001130134635006	0.111719
H	0.4643130346739767 0.9223945131613355 0.8994858060720400	0.106433
H	0.4054243162998891 0.5359845751237963 0.2799467227104803	0.099008
H	0.3071897543653880 0.5379683322634518 0.2717076357453905	0.128637
H	0.6331416197249582 0.0779472515208381 0.9001130134635006	0.111718
H	0.5356870043260229 0.0776055158386631 0.8994858060720400	0.106467
H	0.5359845751237963 0.4054243162998891 0.7200532612895187	0.099008
H	0.5379683322634518 0.3071897543653880 0.7282923642546094	0.128637
H	0.0779472515208381 0.6331416197249582 0.0998869625364974	0.111718
H	0.0776055158386631 0.5356870043260229 0.1005141939279602	0.106467
H	0.4640154248762036 0.5945756837001112 0.7200532612895187	0.099011
H	0.4620317057365508 0.6928103216346111 0.7282923642546094	0.128637
H	0.9220527294791638 0.3668583802750417 0.0998869625364974	0.111719
H	0.9223945131613355 0.4643130346739767 0.1005141939279602	0.106433
H	0.4054243162998891 0.4640154248762036 0.7200532612895187	0.099009
H	0.3071897543653880 0.4620317057365508 0.7282923642546094	0.128637
H	0.6331416197249581 0.9220527294791638 0.0998869625364974	0.111719
H	0.5356870043260229 0.9223945131613355 0.1005141939279602	0.106433
H	0.5945756837001112 0.5359845751237963 0.7200532612895187	0.099010
H	0.6928103216346111 0.5379683322634518 0.7282923642546094	0.128636
H	0.3668583802750417 0.0779472515208381 0.0998869625364974	0.111718
H	0.4643130346739767 0.0776055158386631 0.1005141939279602	0.106467
H	0.5779472705208362 0.8668583802750418 0.5998869545364968	0.111718
H	0.5776054868386645 0.9643130346739768 0.6005142259279627	0.106433
H	0.0359845851237972 0.0945756547001121 0.2200532772895198	0.099009
H	0.0379683372634490 0.1928102646346097 0.2282923962546048	0.128637
H	0.4220527674791670 0.1331416487249571 0.5998869545364968	0.111717
H	0.4223944741613362 0.0356869893260181 0.6005142259279627	0.106467
H	0.9640154248762037 0.9054243932998846 0.2200532772895198	0.099009
H	0.9620316677365482 0.8071897923653912 0.2282923962546048	0.128637
H	0.1331416487249571 0.5779472705208362 0.5998869545364968	0.111719
H	0.0356869893260181 0.5776054868386645 0.6005142259279627	0.106433
H	0.9054243932998846 0.0359845851237972 0.2200532772895198	0.099009
H	0.8071897923653912 0.0379683372634490 0.2282923962546048	0.128637
H	0.8668583802750418 0.4220527674791670 0.5998869545364968	0.111717
H	0.9643130346739768 0.4223944741613362 0.6005142259279627	0.106467
H	0.0945756547001121 0.9640154248762037 0.2200532772895198	0.099009
H	0.1928102646346097 0.9620316677365482 0.2282923962546048	0.128637
H	0.4220527674791670 0.8668583802750418 0.4001130134635008	0.111717
H	0.4223944741613362 0.9643130346739768 0.3994858380720354	0.106467
H	0.9640154248762037 0.0945756547001121 0.7799467067104786	0.099009
H	0.9620316677365482 0.1928102646346097 0.7717076037453950	0.128636
H	0.5779472705208362 0.1331416487249571 0.4001130134635008	0.111718
H	0.5776054868386645 0.0356869893260181 0.3994858380720354	0.106433
H	0.0359845851237972 0.9054243932998846 0.7799467067104786	0.099009
H	0.0379683372634490 0.8071897923653912 0.7717076037453950	0.128636
H	0.8668583802750418 0.5779472705208362 0.4001130134635008	0.111718
H	0.9643130346739768 0.5776054868386645 0.3994858380720354	0.106433
H	0.0945756547001121 0.0359845851237972 0.7799467067104786	0.099009
H	0.1928102646346097 0.0379683372634490 0.7717076037453950	0.128636
H	0.1331416487249571 0.4220527674791670 0.4001130134635008	0.111717
H	0.0356869893260181 0.4223944741613362 0.3994858380720354	0.106467
H	0.9054243932998846 0.9640154248762037 0.7799467067104786	0.099009
H	0.8071897923653912 0.9620316677365482 0.7717076037453950	0.128636
Cd	0.5000000000000000 0.5000000000000000 0.5000000000000000	0.838828
Cd	-0.0000000000000000 -0.0000000000000000 0.0000000000000000	0.838828
Zr	0.5000000000000000 0.5000000000000000 0.0000000000000000	2.484788
Zr	-0.0000000000000000 -0.0000000000000000 0.5000000000000000	2.484798
F	0.5000000000000000 0.5000000000000000 0.2417650256645017	-0.625009
F	-0.0000000000000000 -0.0000000000000000 0.7417649936645068	-0.625007
F	0.5000000000000000 0.5000000000000000 0.7582349103354995	-0.625009
F	-0.0000000000000000 -0.0000000000000000 0.2582349743354982	-0.625007
F	0.5567465023534245 0.5567465023534245 0.0000000000000000	-0.696328
F	0.0567464553534243 0.0567464553534243 0.5000000000000000	-0.696337
F	0.4432535736465817 0.4432535736465817 0.0000000000000000	-0.696338
F	0.9432535356465787 0.9432535356465787 0.5000000000000000	-0.696337
F	0.4432535736465817 0.5567465023534245 0.0000000000000000	-0.696335
F	0.9432535356465787 0.0567464553534243 0.5000000000000000	-0.696337
F	0.5567465023534245 0.4432535736465817 0.0000000000000000	-0.696335
F	0.0567464553534243 0.9432535356465787 0.5000000000000000	-0.696337
N	0.5000000000000000 0.4086343213789187 0.5000000000000000	-0.244848
N	-0.0000000000000000 0.9086343593789217 0.0000000000000000	-0.244848
N	0.5000000000000000 0.5913656786210815 0.5000000000000000	-0.244848
N	-0.0000000000000000 0.0913656876210784 0.0000000000000000	-0.244849
N	0.5913656786210815 0.5000000000000000 0.5000000000000000	-0.244848
N	0.0913656876210784 -0.0000000000000000 0.0000000000000000	-0.244849
N	0.4086343213789187 0.5000000000000000 0.5000000000000000	-0.244848
N	0.9086343593789217 -0.0000000000000000 0.0000000000000000	-0.244848
	  	
