#======================================================================

# CRYSTAL DATA

#----------------------------------------------------------------------

data_VESTA_phase_1


_pd_phase_name                         ZrFSIX_18_Ni
_cell_length_a                         14.06964
_cell_length_b                         13.80672
_cell_length_c                         8.34404
_cell_angle_alpha                      90
_cell_angle_beta                       96.81464
_cell_angle_gamma                      90
_symmetry_space_group_name_H-M         P 1
_symmetry_Int_Tables_number            1

loop_
_symmetry_equiv_pos_as_xyz
   x, y, z

loop_
   _atom_site_label
   _atom_site_fract_x
   _atom_site_fract_y
   _atom_site_fract_z
   _atom_site_charge
F	0.4039085090967698 0.3577217247301360 0.4895518508094135	-0.656980
F	0.5176991147994865 0.4854123036871833 0.7495257319409473	-0.618186
F	0.3881615426316863 0.5615011285453808 0.5145932409582241	-0.630860
F	0.9039085430967649 0.8577216557301336 0.4895518508094135	-0.656981
F	0.0176991407994816 0.9854122686871836 0.7495257319409473	-0.618186
F	0.8881615766316895 0.0615010945453850 0.5145932409582241	-0.630860
F	0.5960914539032313 0.3577217247301360 0.5104481491905865	-0.656981
F	0.4823008822005166 0.4854123036871833 0.2504742680590524	-0.618186
F	0.6118384533683130 0.5615011285453809 0.4854067600417717	-0.630859
F	0.0960914749032292 0.8577216557301336 0.5104481491905866	-0.656981
F	0.9823007472005163 0.9854122686871836 0.2504742680590524	-0.618186
F	0.1118384283683148 0.0615010945453850 0.4854067600417717	-0.630859
C	0.6802243311586741 0.1585152453111969 0.6706377566779604	-0.428415
C	0.7559374598651341 0.1538323376179047 0.8108030535879254	0.212291
C	0.7632447852538509 0.1989958250092048 0.9619525866286414	-0.151888
C	0.6927024968463101 0.2636490781856774 0.0204466565374069	-0.138486
C	0.6742558694100917 0.3619362265050043 0.9773850867915895	0.218338
C	0.7296254121515144 0.4252639300001401 0.8775130783580610	-0.427033
C	0.8953653835686595 0.1984739099652821 0.2080416882588122	-0.438206
C	0.8523032712571444 0.1686889408617668 0.0439729612787703	0.221744
C	0.6268555445156184 0.2399979446135243 0.1275979780030108	0.215685
C	0.6094529208828084 0.1482646601720064 0.2130577481858007	-0.424251
C	0.1802243811586711 0.6585152973111936 0.6706377566779604	-0.428412
C	0.2559374938651369 0.6538323206178995 0.8108030535879254	0.212291
C	0.2632447512538476 0.6989957910092018 0.9619525866286414	-0.151888
C	0.1927024968463104 0.7636490951856747 0.0204466565374069	-0.138485
C	0.1742558524100864 0.8619362605050062 0.9773850867915895	0.218337
C	0.2296254281515087 0.9252638950001411 0.8775130783580610	-0.427033
C	0.3953652825686544 0.6984738239652818 0.2080416882588122	-0.438206
C	0.3523033392571435 0.6686889408617670 0.0439729612787703	0.221743
C	0.1268555195156194 0.7399978586135242 0.1275979780030108	0.215684
C	0.1094530048828153 0.6482647291720091 0.2130577481858007	-0.424251
C	0.3197756658413292 0.1585152453111969 0.3293622443220436	-0.428410
C	0.2440625331348616 0.1538323376179047 0.1891968664120751	0.212286
C	0.2367552437461483 0.1989958250092048 0.0380473893713641	-0.151862
C	0.3072974991536893 0.2636490781856774 0.9795533344625960	-0.138488
C	0.3257441965899140 0.3619362265050043 0.0226149642084115	0.218342
C	0.2703746028484903 0.4252639300001401 0.1224869376419406	-0.427031
C	0.1046346994313439 0.1984739099652821 0.7919583597411919	-0.438212
C	0.1476967077428568 0.1686889408617668 0.9560270267212290	0.221741
C	0.3731444864843814 0.2399979446135243 0.8724020459969842	0.215665
C	0.3905470051171854 0.1482646601720064 0.7869421728142033	-0.424246
C	0.8197756658413293 0.6585152973111936 0.3293622443220436	-0.428415
C	0.7440625331348618 0.6538323206178995 0.1891968664120751	0.212286
C	0.7367552097461523 0.6989957910092018 0.0380473893713641	-0.151862
C	0.8072974991536895 0.7636490951856747 0.9795533344625960	-0.138487
C	0.8257441295899117 0.8619362605050062 0.0226149642084115	0.218342
C	0.7703745858484854 0.9252638950001411 0.1224869376419406	-0.427031
C	0.6046346154313440 0.6984738239652818 0.7919583597411919	-0.438213
C	0.6476967247428552 0.6686889408617670 0.9560270267212290	0.221741
C	0.8731444524843778 0.7399978586135242 0.8724020459969842	0.215665
C	0.8905470721171945 0.6482647291720091 0.7869421728142033	-0.424247
H	0.7115760554180811 0.1696029311057417 0.5577448103652440	0.153850
H	0.6315834659524636 0.2191677781404885 0.6838525131640566	0.147518
H	0.6387560356061984 0.0907684609268674 0.6581988633698996	0.131176
H	0.6828664707646181 0.4722190425370415 0.7974052331224859	0.134598
H	0.7726945756196035 0.3810827166759119 0.8042273777560874	0.143319
H	0.7780840457235034 0.4723892681035894 0.9560571764918200	0.130424
H	0.8592705431531037 0.0694718206465486 0.7082696514010559	0.278673
H	0.8796598249162886 0.1465959113553529 0.3010613731952221	0.144529
H	0.8654093896606722 0.2686793202871632 0.2384075430429732	0.136091
H	0.9734223159390971 0.2046376382711736 0.2142255269080125	0.142011
H	0.5857365933195711 0.1632058107386720 0.3311745794092402	0.149065
H	0.6749690174806151 0.1046521798688839 0.2310586016758898	0.154155
H	0.5537001476266603 0.1044630333989925 0.1433961460831339	0.131853
H	0.5203745427871163 0.3310035832907923 0.2102824294947805	0.262890
H	0.2115761064180816 0.6696028281057441 0.5577448103652440	0.153849
H	0.1315835499524631 0.7191677091404861 0.6838525131640566	0.147515
H	0.1387560856061959 0.5907684009268623 0.6581988633698996	0.131176
H	0.1828664877646157 0.9722189745370359 0.7974052331224859	0.134598
H	0.2726946096196062 0.8810827506759145 0.8042273777560874	0.143319
H	0.2780840787235027 0.9723892681035901 0.9560571764918200	0.130424
H	0.3592705091531074 0.5694718636465486 0.7082696514010559	0.278673
H	0.3796598919162905 0.6465958773553502 0.3010613731952221	0.144529
H	0.3654093216606733 0.7686793552871627 0.2384075430429732	0.136092
H	0.4734223829390921 0.7046376892711673 0.2142255269080125	0.142012
H	0.0857365853195702 0.6632058277386702 0.3311745794092402	0.149065
H	0.1749689834806125 0.6046521368688839 0.2310586016758898	0.154155
H	0.0537001836266628 0.6044629813989950 0.1433961460831339	0.131853
H	0.0203745277871183 0.8310035832907926 0.2102824294947805	0.262890
H	0.2884238755819242 0.1696029311057417 0.4422552216347510	0.153850
H	0.3684164330475317 0.2191677781404885 0.3161475518359457	0.147510
H	0.3612438933938059 0.0907684609268674 0.3418011366301005	0.131178
H	0.3171335242353855 0.4722190425370415 0.2025947348775184	0.134597
H	0.2273054193803925 0.3810827166759119 0.1957725902439096	0.143321
H	0.2219159502765032 0.4723892681035894 0.0439427965081744	0.130423
H	0.1407294578468930 0.0694718206465486 0.2917302535989389	0.278673
H	0.1203400980837086 0.1465959113553529 0.6989386588047810	0.144529
H	0.1345906743393263 0.2686793202871632 0.7615924569570273	0.136095
H	0.0265776130609076 0.2046376382711736 0.7857745050919828	0.142019
H	0.4142634366804320 0.1632058107386720 0.6688254205907599	0.149063
H	0.3250310445193896 0.1046521798688839 0.7689413503241060	0.154154
H	0.4462998173733410 0.1044630333989925 0.8566038939168696	0.131849
H	0.4796254182128842 0.3310035832907923 0.7897175235052188	0.262890
H	0.7884239425819187 0.6696028281057441 0.4422552216347510	0.153850
H	0.8684165340475365 0.7191677091404861 0.3161475518359457	0.147515
H	0.8612438933938064 0.5907684009268623 0.3418011366301005	0.131178
H	0.8171335242353850 0.9722189745370359 0.2025947348775184	0.134597
H	0.7273054193803925 0.8810827506759145 0.1957725902439096	0.143321
H	0.7219159502765033 0.9723892681035901 0.0439427965081744	0.130423
H	0.6407294488468956 0.5694718636465486 0.2917302535989389	0.278673
H	0.6203402070837070 0.6465958773553502 0.6989386588047810	0.144529
H	0.6345906073393240 0.7686793552871627 0.7615924569570273	0.136096
H	0.5265776490609034 0.7046376892711673 0.7857745050919829	0.142019
H	0.9142633696804294 0.6632058277386702 0.6688254205907599	0.149063
H	0.8250309775193880 0.6046521368688839 0.7689413503241060	0.154154
H	0.9462998173733403 0.6044629813989950 0.8566038939168696	0.131849
H	0.9796253842128884 0.8310035832907926 0.7897175235052188	0.262889
N	0.8356281924488872 0.0996198588803186 0.8095668929801727	-0.151672
N	0.6005797191254798 0.3951386527917550 0.0512224519655073	-0.260779
N	0.8953892946723970 0.1077226216946707 0.9492378207615343	-0.262379
N	0.5742152408234923 0.3204705571017458 0.1413023950837240	-0.146040
N	0.3356281924488868 0.5996197818803229 0.8095668929801727	-0.151672
N	0.1005797861254818 0.8951386527917545 0.0512224519655073	-0.260779
N	0.3953893286723998 0.6077226726946711 0.9492378207615343	-0.262379
N	0.0742152328234915 0.8204705221017466 0.1413023950837240	-0.146040
N	0.1643717895511118 0.0996198588803186 0.1904331550198239	-0.151672
N	0.3994201748745188 0.3951386527917550 0.9487775240344910	-0.260783
N	0.1046106753276006 0.1077226216946707 0.0507621592384643	-0.262380
N	0.4257847561765112 0.3204705571017458 0.8586976209162773	-0.146041
N	0.6643718065511092 0.5996197818803229 0.1904331550198239	-0.151672
N	0.8994202758745233 0.8951386527917545 0.9487775240344910	-0.260783
N	0.6046107003276061 0.6077226726946711 0.0507621592384643	-0.262380
N	0.9257847901765067 0.8204705221017466 0.8586976209162773	-0.146041
Zr	0.4999999979999998 0.4669656685482239 0.5000000000000000	2.436482
Zr	0.0000000000000000 0.9669656685482246 0.5000000000000000	2.436482
Ni	0.5000000000000000 0.5054656224115543 -0.0000000000000000	0.817453
Ni	0.0000000000000000 0.0054656294115584 -0.0000000000000000	0.817453
	  	
