#======================================================================

# CRYSTAL DATA

#----------------------------------------------------------------------

data_VESTA_phase_1


_pd_phase_name                         ZrFSIX_2_Fe_i
_cell_length_a                         14.05360
_cell_length_b                         14.05360
_cell_length_c                         8.28689
_cell_angle_alpha                      90
_cell_angle_beta                       90
_cell_angle_gamma                      90
_symmetry_space_group_name_H-M         P 1
_symmetry_Int_Tables_number            1

loop_
_symmetry_equiv_pos_as_xyz
   x, y, z

loop_
   _atom_site_label
   _atom_site_fract_x
   _atom_site_fract_y
   _atom_site_fract_z
   _atom_site_charge
C	0.0000000000000000 0.3044025739296063 0.3543886635582260	-0.156850
C	0.0000000000000000 0.2058173042084293 0.3603366971779584	0.108677
C	0.5000000000000000 0.8044025739296062 0.8543886925582242	-0.156850
C	0.5000000000000000 0.7058173222084305 0.8603366971779584	0.108677
C	0.0000000000000000 0.6955974260703938 0.3543886635582260	-0.156853
C	0.0000000000000000 0.7941826777915695 0.3603366971779584	0.108679
C	0.5000000000000000 0.1955974430703915 0.8543886925582242	-0.156853
C	0.5000000000000000 0.2941826777915691 0.8603366971779584	0.108679
C	0.6955974260703938 -0.0000000000000000 0.3543886635582260	-0.156850
C	0.7941826777915695 -0.0000000000000000 0.3603366971779584	0.108678
C	0.1955974430703915 0.5000000000000000 0.8543886925582242	-0.156850
C	0.2941826777915691 0.5000000000000000 0.8603366971779584	0.108678
C	0.3044025739296063 -0.0000000000000000 0.3543886635582260	-0.156852
C	0.2058173042084293 -0.0000000000000000 0.3603366971779584	0.108680
C	0.8044025739296062 0.5000000000000000 0.8543886925582242	-0.156853
C	0.7058173222084305 0.5000000000000000 0.8603366971779584	0.108680
C	0.0000000000000000 0.3044025739296063 0.6456113074417758	-0.156849
C	0.0000000000000000 0.2058173042084293 0.6396633028220416	0.108678
C	0.5000000000000000 0.8044025739296062 0.1456113364417740	-0.156850
C	0.5000000000000000 0.7058173222084305 0.1396632878220438	0.108678
C	0.0000000000000000 0.6955974260703938 0.6456113074417758	-0.156852
C	0.0000000000000000 0.7941826777915695 0.6396633028220416	0.108680
C	0.5000000000000000 0.1955974430703915 0.1456113364417740	-0.156852
C	0.5000000000000000 0.2941826777915691 0.1396632878220438	0.108680
C	0.3044025739296063 -0.0000000000000000 0.6456113074417758	-0.156852
C	0.2058173042084293 -0.0000000000000000 0.6396633028220416	0.108680
C	0.8044025739296062 0.5000000000000000 0.1456113364417740	-0.156852
C	0.7058173222084305 0.5000000000000000 0.1396632878220438	0.108680
C	0.6955974260703938 -0.0000000000000000 0.6456113074417758	-0.156850
C	0.7941826777915695 -0.0000000000000000 0.6396633028220416	0.108678
C	0.1955974430703915 0.5000000000000000 0.1456113364417740	-0.156850
C	0.2941826777915691 0.5000000000000000 0.1396632878220438	0.108678
C	0.0000000000000000 0.4565892782234677 0.5000000000000000	-0.094871
C	0.0000000000000000 0.3560861170592775 0.5000000000000000	0.159779
C	0.5000000000000000 0.9565893122234704 0.0000000000000000	-0.094871
C	0.5000000000000000 0.8560860820592782 0.0000000000000000	0.159779
C	0.0000000000000000 0.5434107217765324 0.5000000000000000	-0.094623
C	0.0000000000000000 0.6439139179407218 0.5000000000000000	0.159749
C	0.5000000000000000 0.0434107007765271 0.0000000000000000	-0.094623
C	0.5000000000000000 0.1439139179407219 0.0000000000000000	0.159749
C	0.5434107217765324 -0.0000000000000000 0.5000000000000000	-0.094871
C	0.6439139179407218 -0.0000000000000000 0.5000000000000000	0.159779
C	0.0434107007765271 0.5000000000000000 0.0000000000000000	-0.094871
C	0.1439139179407219 0.5000000000000000 0.0000000000000000	0.159779
C	0.4565892782234677 -0.0000000000000000 0.5000000000000000	-0.094623
C	0.3560861170592775 -0.0000000000000000 0.5000000000000000	0.159749
C	0.9565893122234704 0.5000000000000000 0.0000000000000000	-0.094623
C	0.8560860820592782 0.5000000000000000 0.0000000000000000	0.159749
H	0.0000000000000000 0.3406008165014129 0.2381827703846484	0.122839
H	0.0000000000000000 0.1649426339899753 0.2489637174801875	0.086608
H	0.5000000000000000 0.8406008165014125 0.7381827703846484	0.122840
H	0.5000000000000000 0.6649425809899739 0.7489637474801896	0.086608
H	0.0000000000000000 0.6593991834985875 0.2381827703846484	0.122838
H	0.0000000000000000 0.8350574190100261 0.2489637174801875	0.086608
H	0.5000000000000000 0.1593991834985873 0.7381827703846484	0.122838
H	0.5000000000000000 0.3350573840100192 0.7489637474801896	0.086608
H	0.6593991834985875 -0.0000000000000000 0.2381827703846484	0.122839
H	0.8350574190100261 -0.0000000000000000 0.2489637174801875	0.086607
H	0.1593991834985873 0.5000000000000000 0.7381827703846484	0.122840
H	0.3350573840100192 0.5000000000000000 0.7489637474801896	0.086607
H	0.3406008165014129 -0.0000000000000000 0.2381827703846484	0.122838
H	0.1649426339899753 -0.0000000000000000 0.2489637174801875	0.086607
H	0.8406008165014125 0.5000000000000000 0.7381827703846484	0.122838
H	0.6649425809899739 0.5000000000000000 0.7489637474801896	0.086607
H	0.0000000000000000 0.3406008165014129 0.7618172296153516	0.122840
H	0.0000000000000000 0.1649426339899753 0.7510361945198127	0.086608
H	0.5000000000000000 0.8406008165014125 0.2618172296153516	0.122840
H	0.5000000000000000 0.6649425809899739 0.2510362825198125	0.086608
H	0.0000000000000000 0.6593991834985875 0.7618172296153516	0.122838
H	0.0000000000000000 0.8350574190100261 0.7510361945198127	0.086608
H	0.5000000000000000 0.1593991834985873 0.2618172296153516	0.122838
H	0.5000000000000000 0.3350573840100192 0.2510362825198125	0.086608
H	0.3406008165014129 -0.0000000000000000 0.7618172296153516	0.122838
H	0.1649426339899753 -0.0000000000000000 0.7510361945198127	0.086607
H	0.8406008165014125 0.5000000000000000 0.2618172296153516	0.122838
H	0.6649425809899739 0.5000000000000000 0.2510362825198125	0.086607
H	0.6593991834985875 -0.0000000000000000 0.7618172296153516	0.122840
H	0.8350574190100261 -0.0000000000000000 0.7510361945198127	0.086607
H	0.1593991834985873 0.5000000000000000 0.2618172296153516	0.122840
H	0.3350573840100192 0.5000000000000000 0.2510362825198125	0.086607
Fe	0.0000000000000000 -0.0000000000000000 0.5000000000000000	0.550491
Fe	0.5000000000000000 0.5000000000000000 0.0000000000000000	0.550491
Zr	0.0000000000000000 -0.0000000000000000 0.0000000000000000	2.454071
Zr	0.5000000000000000 0.5000000000000000 0.5000000000000000	2.454071
N	0.0000000000000000 0.1562142580858469 0.5000000000000000	-0.189234
N	0.5000000000000000 0.6562142400858453 0.0000000000000000	-0.189234
N	0.0000000000000000 0.8437857599141547 0.5000000000000000	-0.189234
N	0.5000000000000000 0.3437857599141546 0.0000000000000000	-0.189234
N	0.8437857599141547 -0.0000000000000000 0.5000000000000000	-0.189234
N	0.3437857599141546 0.5000000000000000 0.0000000000000000	-0.189234
N	0.1562142580858469 -0.0000000000000000 0.5000000000000000	-0.189234
N	0.6562142400858453 0.5000000000000000 0.0000000000000000	-0.189234
F	0.0000000000000000 -0.0000000000000000 0.7462250151929964	-0.565249
F	0.5000000000000000 0.5000000000000000 0.2462251041930002	-0.565249
F	0.0000000000000000 -0.0000000000000000 0.2537749108070048	-0.565249
F	0.5000000000000000 0.5000000000000000 0.7537749848070036	-0.565249
F	0.6018347426793693 0.6018347426793693 0.5000000000000000	-0.666847
F	0.6018347426793693 0.3981652573206307 0.5000000000000000	-0.666847
F	0.3981652573206307 0.6018347426793693 0.5000000000000000	-0.666847
F	0.3981652573206307 0.3981652573206307 0.5000000000000000	-0.666847
F	0.1018347596793673 0.1018347596793673 0.0000000000000000	-0.666847
F	0.8981652573206307 0.8981652573206307 0.0000000000000000	-0.666847
F	0.8981652573206307 0.1018347596793673 0.0000000000000000	-0.666847
F	0.1018347596793673 0.8981652573206307 0.0000000000000000	-0.666847
	  	
