#======================================================================

# CRYSTAL DATA

#----------------------------------------------------------------------

data_VESTA_phase_1


_pd_phase_name                         ZrFSIX_4_Fe_i
_cell_length_a                         23.43937
_cell_length_b                         20.40507
_cell_length_c                         9.56539
_cell_angle_alpha                      90
_cell_angle_beta                       90
_cell_angle_gamma                      90
_symmetry_space_group_name_H-M         P 1
_symmetry_Int_Tables_number            1

loop_
_symmetry_equiv_pos_as_xyz
   x, y, z

loop_
   _atom_site_label
   _atom_site_fract_x
   _atom_site_fract_y
   _atom_site_fract_z
   _atom_site_charge
C	0.4171219518907791 0.5970370643455536 0.6301302682550746	0.102842
C	0.3734318070485862 0.5512991483396492 0.6279947817401796	-0.167744
C	0.2775249566110927 0.4488818553023094 0.6272182484465866	-0.114400
C	0.2313772657962306 0.4062674509287363 0.6260381342655006	-0.111577
C	0.1297952344686660 0.3194767398538619 0.6250394374860324	-0.166703
C	0.0832788483873627 0.2775361695399873 0.6284669302443451	0.094275
C	0.9171220348907753 0.0970370753455580 0.6301302682550746	0.102842
C	0.8734317650485903 0.0512990903396511 0.6279947817401796	-0.167744
C	0.7775249776110981 0.9488819023023095 0.6272182484465866	-0.114401
C	0.7313772457962291 0.9062674969287331 0.6260381342655006	-0.111576
C	0.6297952344686658 0.8194767868538622 0.6250394374860324	-0.166703
C	0.5832788333873583 0.7775362625399846 0.6284669302443451	0.094275
C	0.5828780481092209 0.4029628896544426 0.1301302762550750	0.102842
C	0.6265682349514097 0.4487008976603550 0.1279947967401768	-0.167745
C	0.7224750223889019 0.5511180976976905 0.1272182564465874	-0.114400
C	0.7686227542037709 0.5937325490712636 0.1260381422655010	-0.111577
C	0.8702047655313342 0.6805232601461382 0.1250394444860365	-0.166696
C	0.9167211666126417 0.7224637844600157 0.1284669452443431	0.094263
C	0.0828780591092254 0.9029629826544467 0.1301302762550750	0.102842
C	0.1265681929514139 0.9487008056603541 0.1279947967401768	-0.167745
C	0.2224750643889055 0.0511181446976906 0.1272182564465874	-0.114400
C	0.2686227132037713 0.0937325260712653 0.1260381422655010	-0.111577
C	0.3702048075313376 0.1805232711461352 0.1250394444860365	-0.166702
C	0.4167211666126421 0.2224638544600147 0.1284669452443431	0.094275
C	0.5828780481092209 0.5970370643455536 0.8698697007449264	0.102842
C	0.6265682349514097 0.5512991483396492 0.8720051872598213	-0.167744
C	0.7224750223889019 0.4488818553023094 0.8727817825534124	-0.114400
C	0.7686227542037709 0.4062674509287363 0.8739618967344984	-0.111577
C	0.8702047655313342 0.3194767398538619 0.8749605935139666	-0.166698
C	0.9167211666126417 0.2775361695399873 0.8715331007556539	0.094264
C	0.0828780591092254 0.0970370753455580 0.8698697007449264	0.102842
C	0.1265681929514139 0.0512990903396511 0.8720051872598213	-0.167744
C	0.2224750643889055 0.9488819023023095 0.8727817825534124	-0.114401
C	0.2686227132037713 0.9062674969287331 0.8739618967344984	-0.111577
C	0.3702048075313376 0.8194767868538622 0.8749605935139666	-0.166705
C	0.4167211666126421 0.7775362625399846 0.8715331007556539	0.094275
C	0.4171219518907791 0.4029628896544426 0.3698697317449256	0.102843
C	0.3734318070485862 0.4487008976603550 0.3720051872598218	-0.167745
C	0.2775249566110927 0.5511180976976905 0.3727817515534134	-0.114400
C	0.2313772657962306 0.5937325490712636 0.3739618347345008	-0.111577
C	0.1297952344686660 0.6805232601461382 0.3749605315139615	-0.166704
C	0.0832788483873627 0.7224637844600157 0.3715330387556554	0.094275
C	0.9171220348907753 0.9029629826544467 0.3698697317449256	0.102843
C	0.8734317650485903 0.9487008056603541 0.3720051872598218	-0.167745
C	0.7775249776110981 0.0511181446976906 0.3727817515534134	-0.114399
C	0.7313772457962291 0.0937325260712653 0.3739618347345008	-0.111577
C	0.6297952344686658 0.1805232711461352 0.3749605315139615	-0.166704
C	0.5832788333873583 0.2224638544600147 0.3715330387556554	0.094275
C	0.5828780481092209 0.4029628896544426 0.3698697317449256	0.102844
C	0.6265682349514097 0.4487008976603550 0.3720051872598218	-0.167745
C	0.7224750223889019 0.5511180976976905 0.3727817515534134	-0.114400
C	0.7686227542037709 0.5937325490712636 0.3739618347345008	-0.111577
C	0.8702047655313342 0.6805232601461382 0.3749605315139615	-0.166698
C	0.9167211666126417 0.7224637844600157 0.3715330387556554	0.094263
C	0.0828780591092254 0.9029629826544467 0.3698697317449256	0.102844
C	0.1265681929514139 0.9487008056603541 0.3720051872598218	-0.167745
C	0.2224750643889055 0.0511181446976906 0.3727817515534134	-0.114400
C	0.2686227132037713 0.0937325260712653 0.3739618347345008	-0.111577
C	0.3702048075313376 0.1805232711461352 0.3749605315139615	-0.166705
C	0.4167211666126421 0.2224638544600147 0.3715330387556554	0.094275
C	0.4171219518907791 0.5970370643455536 0.8698697007449264	0.102844
C	0.3734318070485862 0.5512991483396492 0.8720051872598213	-0.167744
C	0.2775249566110927 0.4488818553023094 0.8727817825534124	-0.114401
C	0.2313772657962306 0.4062674509287363 0.8739618967344984	-0.111577
C	0.1297952344686660 0.3194767398538619 0.8749605935139665	-0.166705
C	0.0832788483873627 0.2775361695399873 0.8715331007556539	0.094276
C	0.9171220348907753 0.0970370753455580 0.8698697007449264	0.102844
C	0.8734317650485903 0.0512990903396511 0.8720051872598213	-0.167744
C	0.7775249776110981 0.9488819023023095 0.8727817825534124	-0.114401
C	0.7313772457962291 0.9062674969287331 0.8739618967344984	-0.111576
C	0.6297952344686658 0.8194767868538622 0.8749605935139665	-0.166706
C	0.5832788333873583 0.7775362625399846 0.8715331007556539	0.094276
C	0.4171219518907791 0.4029628896544426 0.1301302762550750	0.102845
C	0.3734318070485862 0.4487008976603550 0.1279947967401769	-0.167745
C	0.2775249566110927 0.5511180976976905 0.1272182564465874	-0.114400
C	0.2313772657962306 0.5937325490712636 0.1260381422655010	-0.111577
C	0.1297952344686660 0.6805232601461382 0.1250394444860365	-0.166706
C	0.0832788483873627 0.7224637844600157 0.1284669452443431	0.094275
C	0.9171220348907753 0.9029629826544467 0.1301302762550750	0.102845
C	0.8734317650485903 0.9487008056603541 0.1279947967401769	-0.167745
C	0.7775249776110981 0.0511181446976906 0.1272182564465874	-0.114399
C	0.7313772457962291 0.0937325260712653 0.1260381422655010	-0.111577
C	0.6297952344686658 0.1805232711461352 0.1250394444860365	-0.166706
C	0.5832788333873583 0.2224638544600147 0.1284669452443431	0.094275
C	0.5828780481092209 0.5970370643455536 0.6301302682550746	0.102845
C	0.6265682349514097 0.5512991483396492 0.6279947817401796	-0.167744
C	0.7224750223889019 0.4488818553023094 0.6272182484465866	-0.114400
C	0.7686227542037709 0.4062674509287363 0.6260381342655006	-0.111577
C	0.8702047655313342 0.3194767398538619 0.6250394374860325	-0.166700
C	0.9167211666126417 0.2775361695399873 0.6284669302443451	0.094264
C	0.0828780591092254 0.0970370753455580 0.6301302682550746	0.102844
C	0.1265681929514139 0.0512990903396511 0.6279947817401796	-0.167744
C	0.2224750643889055 0.9488819023023095 0.6272182484465866	-0.114401
C	0.2686227132037713 0.9062674969287331 0.6260381342655006	-0.111577
C	0.3702048075313376 0.8194767868538622 0.6250394374860324	-0.166707
C	0.4167211666126421 0.7775362625399846 0.6284669302443451	0.094276
C	0.3491951800988896 0.5244509783585213 0.7500000149999977	0.123908
C	0.3021203000779930 0.4745457724412940 0.7500000149999977	0.074541
C	0.2056261803439632 0.3845532325391881 0.7500000149999977	0.065647
C	0.1552440944088799 0.3411967764109584 0.7500000149999977	0.105093
C	0.8491951380988934 0.0244509613585233 0.7500000149999977	0.123907
C	0.8021203620779915 0.9745457254412941 0.7500000149999977	0.074541
C	0.7056261803439628 0.8845532555391863 0.7500000149999977	0.065647
C	0.6552440944088800 0.8411967074109564 0.7500000149999977	0.105093
C	0.6508048199011103 0.4755490676414753 0.2500000000000000	0.123908
C	0.6978796379220085 0.5254542275587055 0.2500000000000000	0.074540
C	0.7943738196560372 0.6154467914608140 0.2500000000000000	0.065647
C	0.8447559465911270 0.6588032005890431 0.2500000000000000	0.105091
C	0.1508048309011077 0.9755491146414758 0.2500000000000000	0.123908
C	0.1978797209220052 0.0254542305587026 0.2500000000000000	0.074541
C	0.2943738196560365 0.1154467444608134 0.2500000000000000	0.065647
C	0.3447559055911201 0.1588032345890461 0.2500000000000000	0.105093
C	0.6508048199011103 0.5244509783585213 0.7500000149999977	0.123908
C	0.6978796379220085 0.4745457724412940 0.7500000149999977	0.074541
C	0.7943738196560372 0.3845532325391881 0.7500000149999977	0.065646
C	0.8447559465911270 0.3411967764109584 0.7500000149999977	0.105091
C	0.1508048309011077 0.0244509613585232 0.7500000149999977	0.123908
C	0.1978797209220052 0.9745457254412941 0.7500000149999977	0.074541
C	0.2943738196560365 0.8845532555391863 0.7500000149999977	0.065647
C	0.3447559055911201 0.8411967074109564 0.7500000149999977	0.105093
C	0.3491951800988896 0.4755490676414753 0.2500000000000000	0.123908
C	0.3021203000779930 0.5254542275587055 0.2500000000000000	0.074540
C	0.2056261803439632 0.6154467914608140 0.2500000000000000	0.065647
C	0.1552440944088799 0.6588032005890431 0.2500000000000000	0.105093
C	0.8491951380988934 0.9755491146414758 0.2500000000000000	0.123908
C	0.8021203620779915 0.0254542305587026 0.2500000000000000	0.074540
C	0.7056261803439628 0.1154467444608134 0.2500000000000000	0.065647
C	0.6552440944088800 0.1588032345890461 0.2500000000000000	0.105093
H	0.4348746952243165 0.6160961037532668 0.5328443561616105	0.104740
H	0.3600649545293539 0.5385786916164924 0.5241417884811275	0.105805
H	0.2938132254599483 0.4609444477599181 0.5254021759501480	0.086373
H	0.2157197723740173 0.3901021302054530 0.5244256367841816	0.104904
H	0.1455655788391707 0.3340360297909649 0.5226714190512803	0.123490
H	0.0635254546169568 0.2596618217679782 0.5324084619647907	0.107879
H	0.9348746532243126 0.1160961387532663 0.5328443561616105	0.104741
H	0.8600649135293542 0.0385786276164873 0.5241417884811275	0.105805
H	0.7938132044599503 0.9609444477599183 0.5254021759501480	0.086373
H	0.7157197303740142 0.8901020612054580 0.5244256367841816	0.104904
H	0.6455655688391695 0.8340360297909656 0.5226714190512805	0.123490
H	0.5635254856169559 0.7596617987679800 0.5324084619647907	0.107879
H	0.5651253047756839 0.3839038962467330 0.0328444181616087	0.104740
H	0.6399350454706459 0.4614213553835078 0.0241417884811275	0.105805
H	0.7061867955400497 0.5390555062400779 0.0254022379501461	0.086373
H	0.7842802696259858 0.6098978467945415 0.0244255757841804	0.104904
H	0.8544344311608305 0.6659639242090306 0.0226714190512803	0.123490
H	0.9364744733830442 0.7403382012320200 0.0324084309647916	0.107884
H	0.0651253107756842 0.8839038962467332 0.0328444181616087	0.104741
H	0.1399350864706459 0.9614213553835079 0.0241417884811275	0.105805
H	0.2061867955400498 0.0390555492400780 0.0254022379501461	0.086373
H	0.2842802276259828 0.1098978807945445 0.0244255757841804	0.104904
H	0.3544344311608298 0.1659639472090295 0.0226714190512800	0.123490
H	0.4364745143830442 0.2403381782320220 0.0324084309647916	0.107879
H	0.5651253047756839 0.6160961037532668 -0.0328443751616087	0.104740
H	0.6399350454706459 0.5385786916164924 -0.0241418154811332	0.105805
H	0.7061867955400497 0.4609444477599181 -0.0254021939501425	0.086373
H	0.7842802696259858 0.3901021302054530 -0.0244256297841776	0.104904
H	0.8544344311608305 0.3340360297909649 -0.0226714190512802	0.123490
H	0.9364744733830442 0.2596618217679782 -0.0324084689647947	0.107884
H	0.0651253107756842 0.1160961387532663 -0.0328443751616087	0.104741
H	0.1399350864706459 0.0385786276164873 -0.0241418154811332	0.105805
H	0.2061867955400498 0.9609444477599183 -0.0254021939501425	0.086373
H	0.2842802276259828 0.8901020612054580 -0.0244256297841776	0.104904
H	0.3544344311608298 0.8340360297909656 -0.0226714190512802	0.123490
H	0.4364745143830442 0.7596617987679800 -0.0324084689647947	0.107879
H	0.4348746952243165 0.3839038962467330 0.4671556128383904	0.104740
H	0.3600649545293539 0.4614213553835078 0.4758582425188713	0.105805
H	0.2938132254599483 0.5390555062400779 0.4745977930498530	0.086373
H	0.2157197723740173 0.6098978467945415 0.4755743322158193	0.104904
H	0.1455655788391707 0.6659639242090306 0.4773285499487208	0.123490
H	0.0635254546169568 0.7403382012320200 0.4675915380352094	0.107879
H	0.9348746532243126 0.8839038962467332 0.4671556128383904	0.104741
H	0.8600649135293542 0.9614213553835079 0.4758582425188713	0.105805
H	0.7938132044599503 0.0390555492400780 0.4745977930498530	0.086373
H	0.7157197303740142 0.1098978807945445 0.4755743322158193	0.104904
H	0.6455655688391695 0.1659639472090295 0.4773285499487208	0.123490
H	0.5635254856169559 0.2403381782320220 0.4675915380352094	0.107879
H	0.5651253047756839 0.3839038962467330 0.4671556128383904	0.104740
H	0.6399350454706459 0.4614213553835078 0.4758582425188713	0.105805
H	0.7061867955400497 0.5390555062400779 0.4745977930498530	0.086373
H	0.7842802696259858 0.6098978467945415 0.4755743322158193	0.104905
H	0.8544344311608305 0.6659639242090306 0.4773285499487208	0.123489
H	0.9364744733830442 0.7403382012320200 0.4675915380352094	0.107884
H	0.0651253107756842 0.8839038962467332 0.4671556128383904	0.104741
H	0.1399350864706459 0.9614213553835079 0.4758582425188713	0.105805
H	0.2061867955400498 0.0390555492400780 0.4745977930498530	0.086373
H	0.2842802276259828 0.1098978807945445 0.4755743322158193	0.104905
H	0.3544344311608298 0.1659639472090295 0.4773285499487208	0.123489
H	0.4364745143830442 0.2403381782320220 0.4675915380352094	0.107879
H	0.4348746952243165 0.6160961037532668 -0.0328443751616087	0.104740
H	0.3600649545293539 0.5385786916164924 -0.0241418154811332	0.105805
H	0.2938132254599483 0.4609444477599181 -0.0254021939501425	0.086373
H	0.2157197723740173 0.3901021302054530 -0.0244256297841776	0.104905
H	0.1455655788391707 0.3340360297909649 -0.0226714190512802	0.123489
H	0.0635254546169568 0.2596618217679782 -0.0324084689647947	0.107879
H	0.9348746532243126 0.1160961387532663 -0.0328443751616087	0.104741
H	0.8600649135293542 0.0385786276164873 -0.0241418154811332	0.105805
H	0.7938132044599503 0.9609444477599183 -0.0254021939501425	0.086373
H	0.7157197303740142 0.8901020612054580 -0.0244256297841776	0.104904
H	0.6455655688391695 0.8340360297909656 -0.0226714190512802	0.123490
H	0.5635254856169559 0.7596617987679800 -0.0324084689647947	0.107879
H	0.4348746952243165 0.3839038962467330 0.0328444181616087	0.104740
H	0.3600649545293539 0.4614213553835078 0.0241417884811275	0.105805
H	0.2938132254599483 0.5390555062400779 0.0254022379501461	0.086373
H	0.2157197723740173 0.6098978467945415 0.0244255757841804	0.104905
H	0.1455655788391707 0.6659639242090306 0.0226714190512800	0.123489
H	0.0635254546169568 0.7403382012320200 0.0324084309647916	0.107879
H	0.9348746532243126 0.8839038962467332 0.0328444181616087	0.104741
H	0.8600649135293542 0.9614213553835079 0.0241417884811275	0.105805
H	0.7938132044599503 0.0390555492400780 0.0254022379501461	0.086373
H	0.7157197303740142 0.1098978807945445 0.0244255757841804	0.104905
H	0.6455655688391695 0.1659639472090295 0.0226714190512803	0.123489
H	0.5635254856169559 0.2403381782320220 0.0324084309647916	0.107879
H	0.5651253047756839 0.6160961037532668 0.5328443561616105	0.104740
H	0.6399350454706459 0.5385786916164924 0.5241417884811275	0.105805
H	0.7061867955400497 0.4609444477599181 0.5254021759501480	0.086373
H	0.7842802696259858 0.3901021302054530 0.5244256367841816	0.104905
H	0.8544344311608305 0.3340360297909649 0.5226714190512803	0.123489
H	0.9364744733830442 0.2596618217679782 0.5324084619647907	0.107884
H	0.0651253107756842 0.1160961387532663 0.5328443561616105	0.104741
H	0.1399350864706459 0.0385786276164873 0.5241417884811275	0.105805
H	0.2061867955400498 0.9609444477599183 0.5254021759501480	0.086373
H	0.2842802276259828 0.8901020612054580 0.5244256367841816	0.104905
H	0.3544344311608298 0.8340360297909656 0.5226714190512803	0.123490
H	0.4364745143830442 0.7596617987679800 0.5324084619647907	0.107879
Fe	0.5000000000000000 0.6880692837374112 0.7500000149999977	0.503591
Fe	-0.0000000000000000 0.1880693417374091 0.7500000149999977	0.503592
Fe	0.5000000000000000 0.3119306462625899 0.2500000000000000	0.503591
Fe	-0.0000000000000000 0.8119307162625888 0.2500000000000000	0.503591
F	0.5000000000000000 0.6849458647881665 0.4727882728563759	-0.646432
F	-0.0000000000000000 0.1849458997881665 0.4727882728563759	-0.646438
F	0.5000000000000000 0.3150541122118274 -0.0272117271436243	-0.646432
F	-0.0000000000000000 0.8150541352118335 -0.0272117271436243	-0.646438
F	0.5000000000000000 0.6849458647881665 0.0272117131436232	-0.646432
F	-0.0000000000000000 0.1849458997881665 0.0272117131436232	-0.646437
F	0.5000000000000000 0.3150541122118274 0.5272116971436217	-0.646432
F	-0.0000000000000000 0.8150541352118335 0.5272116971436217	-0.646437
F	0.4379798335796607 0.7530140686710054 0.2500000000000000	-0.697048
F	0.5610979578250108 0.6117850348001233 0.2500000000000000	-0.686647
F	0.9379798335796609 0.2530140686710053 0.2500000000000000	-0.697046
F	0.0610979788250158 0.1117850348001234 0.2500000000000000	-0.686646
F	0.5620201254203393 0.2469859083289962 0.7500000149999977	-0.697048
F	0.4389020421749896 0.3882149651998766 0.7500000149999977	-0.686646
F	0.0620201774203438 0.7469859313289946 0.7500000149999977	-0.697047
F	0.9389020421749892 0.8882149651998767 0.7500000149999977	-0.686646
F	0.5620201254203393 0.7530140686710054 0.2500000000000000	-0.697048
F	0.4389020421749896 0.6117850348001233 0.2500000000000000	-0.686647
F	0.0620201774203438 0.2530140686710053 0.2500000000000000	-0.697048
F	0.9389020421749892 0.1117850348001234 0.2500000000000000	-0.686646
F	0.4379798335796607 0.2469859083289962 0.7500000149999977	-0.697048
F	0.5610979578250108 0.3882149651998766 0.7500000149999977	-0.686646
F	0.9379798335796609 0.7469859313289946 0.7500000149999977	-0.697046
F	0.0610979788250158 0.8882149651998767 0.7500000149999977	-0.686646
N	0.4395134206841438 0.6199696293163444 0.7500000149999977	-0.177655
N	0.5606694421190787 0.7560604951345353 0.7500000149999977	-0.185035
N	0.9395133796841370 0.1199696173163434 0.7500000149999977	-0.177654
N	0.0606694161190766 0.2560604721345300 0.7500000149999977	-0.185035
N	0.5604865793158561 0.3800303706836558 0.2500000000000000	-0.177655
N	0.4393305578809215 0.2439395278654699 0.2500000000000000	-0.185035
N	0.0604865793158563 0.8800303706836556 0.2500000000000000	-0.177654
N	0.9393305988809212 0.7439395048654647 0.2500000000000000	-0.185028
N	0.5604865793158561 0.6199696293163444 0.7500000149999977	-0.177655
N	0.4393305578809215 0.7560604951345353 0.7500000149999977	-0.185034
N	0.0604865793158563 0.1199696173163434 0.7500000149999977	-0.177654
N	0.9393305988809212 0.2560604721345300 0.7500000149999977	-0.185029
N	0.4395134206841438 0.3800303706836558 0.2500000000000000	-0.177654
N	0.5606694421190787 0.2439395278654699 0.2500000000000000	-0.185035
N	0.9395133796841370 0.8800303706836556 0.2500000000000000	-0.177654
N	0.0606694161190765 0.7439395048654647 0.2500000000000000	-0.185034
Zr	0.5000000000000000 0.6830836800665224 0.2500000000000000	2.464129
Zr	-0.0000000000000000 0.1830837040665241 0.2500000000000000	2.464131
Zr	0.5000000000000000 0.3169162729334778 0.7500000149999977	2.464129
Zr	-0.0000000000000000 0.8169163199334776 0.7500000149999977	2.464131
	  	
