#======================================================================

# CRYSTAL DATA

#----------------------------------------------------------------------

data_VESTA_phase_1


_pd_phase_name                         ZrFSIX_2_Ni_i
_cell_length_a                         13.90637
_cell_length_b                         13.90637
_cell_length_c                         8.24690
_cell_angle_alpha                      90
_cell_angle_beta                       90
_cell_angle_gamma                      90
_symmetry_space_group_name_H-M         P 1
_symmetry_Int_Tables_number            1

loop_
_symmetry_equiv_pos_as_xyz
   x, y, z

loop_
   _atom_site_label
   _atom_site_fract_x
   _atom_site_fract_y
   _atom_site_fract_z
   _atom_site_charge
C	0.0000000000000000 0.3020773626759515 0.3539874695067919	-0.157314
C	0.0000000000000000 0.2023846778462088 0.3597585374335344	0.113059
C	0.5000000000000000 0.8020773626759512 0.8539874985067905	-0.157314
C	0.5000000000000000 0.7023846958462104 0.8597585374335343	0.113059
C	0.0000000000000000 0.6979226373240488 0.3539874695067919	-0.157316
C	0.0000000000000000 0.7976153041537896 0.3597585374335344	0.113061
C	0.5000000000000000 0.1979226543240463 0.8539874985067905	-0.157316
C	0.5000000000000000 0.2976153041537897 0.8597585374335343	0.113061
C	0.6979226373240488 0.0000000000000000 0.3539874695067919	-0.157314
C	0.7976153041537896 0.0000000000000000 0.3597585374335344	0.113061
C	0.1979226543240463 0.5000000000000000 0.8539874985067905	-0.157314
C	0.2976153041537897 0.5000000000000000 0.8597585374335343	0.113061
C	0.3020773626759515 0.0000000000000000 0.3539874695067919	-0.157316
C	0.2023846778462088 0.0000000000000000 0.3597585374335344	0.113063
C	0.8020773626759512 0.5000000000000000 0.8539874985067903	-0.157316
C	0.7023846958462104 0.5000000000000000 0.8597585374335343	0.113063
C	0.0000000000000000 0.3020773626759515 0.6460125014932095	-0.157311
C	0.0000000000000000 0.2023846778462088 0.6402414625664657	0.113060
C	0.5000000000000000 0.8020773626759512 0.1460125304932082	-0.157311
C	0.5000000000000000 0.7023846958462104 0.1402414475664679	0.113060
C	0.0000000000000000 0.6979226373240488 0.6460125014932097	-0.157314
C	0.0000000000000000 0.7976153041537896 0.6402414625664657	0.113062
C	0.5000000000000000 0.1979226543240463 0.1460125304932082	-0.157314
C	0.5000000000000000 0.2976153041537897 0.1402414475664679	0.113062
C	0.3020773626759515 0.0000000000000000 0.6460125014932095	-0.157313
C	0.2023846778462088 0.0000000000000000 0.6402414625664657	0.113063
C	0.8020773626759512 0.5000000000000000 0.1460125304932082	-0.157314
C	0.7023846958462104 0.5000000000000000 0.1402414475664679	0.113063
C	0.6979226373240488 0.0000000000000000 0.6460125014932097	-0.157311
C	0.7976153041537896 0.0000000000000000 0.6402414625664657	0.113061
C	0.1979226543240463 0.5000000000000000 0.1460125304932082	-0.157312
C	0.2976153041537897 0.5000000000000000 0.1402414475664679	0.113061
C	0.0000000000000000 0.4561231946654022 0.5000000000000000	-0.094670
C	0.0000000000000000 0.3543847101397463 0.5000000000000000	0.166654
C	0.5000000000000000 0.9561232286654051 -0.0000000000000000	-0.094670
C	0.5000000000000000 0.8543846751397470 -0.0000000000000000	0.166654
C	0.0000000000000000 0.5438768053345977 0.5000000000000000	-0.094418
C	0.0000000000000000 0.6456153248602530 0.5000000000000000	0.166623
C	0.5000000000000000 0.0438767843345925 -0.0000000000000000	-0.094419
C	0.5000000000000000 0.1456153248602531 -0.0000000000000000	0.166623
C	0.5438768053345977 0.0000000000000000 0.5000000000000000	-0.094669
C	0.6456153248602530 0.0000000000000000 0.5000000000000000	0.166654
C	0.0438767843345925 0.5000000000000000 -0.0000000000000000	-0.094670
C	0.1456153248602531 0.5000000000000000 -0.0000000000000000	0.166654
C	0.4561231946654022 0.0000000000000000 0.5000000000000000	-0.094418
C	0.3543847101397463 0.0000000000000000 0.5000000000000000	0.166623
C	0.9561232286654051 0.5000000000000000 -0.0000000000000000	-0.094418
C	0.8543846751397470 0.5000000000000000 -0.0000000000000000	0.166623
H	0.0000000000000000 0.3383996109242242 0.2371062648451557	0.122811
H	0.0000000000000000 0.1610597668780187 0.2479963048093689	0.082379
H	0.5000000000000000 0.8383996109242245 0.7371062648451557	0.122811
H	0.5000000000000000 0.6610597138780181 0.7479963348093716	0.082379
H	0.0000000000000000 0.6616003890757755 0.2371062648451557	0.122810
H	0.0000000000000000 0.8389402861219819 0.2479963048093689	0.082379
H	0.5000000000000000 0.1616003890757755 0.7371062648451557	0.122810
H	0.5000000000000000 0.3389402511219757 0.7479963348093716	0.082379
H	0.6616003890757755 0.0000000000000000 0.2371062648451557	0.122811
H	0.8389402861219819 0.0000000000000000 0.2479963048093689	0.082378
H	0.1616003890757755 0.5000000000000000 0.7371062648451557	0.122811
H	0.3389402511219757 0.5000000000000000 0.7479963348093716	0.082379
H	0.3383996109242242 0.0000000000000000 0.2371062648451557	0.122810
H	0.1610597668780187 0.0000000000000000 0.2479963048093689	0.082379
H	0.8383996109242245 0.5000000000000000 0.7371062648451557	0.122810
H	0.6610597138780181 0.5000000000000000 0.7479963348093716	0.082379
H	0.0000000000000000 0.3383996109242242 0.7628937351548444	0.122810
H	0.0000000000000000 0.1610597668780187 0.7520036071906308	0.082379
H	0.5000000000000000 0.8383996109242245 0.2628937351548441	0.122810
H	0.5000000000000000 0.6610597138780181 0.2520036951906310	0.082379
H	0.0000000000000000 0.6616003890757755 0.7628937351548444	0.122808
H	0.0000000000000000 0.8389402861219819 0.7520036071906308	0.082379
H	0.5000000000000000 0.1616003890757755 0.2628937351548441	0.122808
H	0.5000000000000000 0.3389402511219757 0.2520036951906310	0.082379
H	0.3383996109242242 0.0000000000000000 0.7628937351548444	0.122808
H	0.1610597668780187 0.0000000000000000 0.7520036071906308	0.082379
H	0.8383996109242245 0.5000000000000000 0.2628937351548441	0.122808
H	0.6610597138780181 0.5000000000000000 0.2520036951906311	0.082379
H	0.6616003890757755 0.0000000000000000 0.7628937351548444	0.122810
H	0.8389402861219819 0.0000000000000000 0.7520036071906308	0.082378
H	0.1616003890757755 0.5000000000000000 0.2628937351548441	0.122810
H	0.3389402511219757 0.5000000000000000 0.2520036951906310	0.082378
Ni	0.0000000000000000 0.0000000000000000 0.5000000000000000	0.784025
Ni	0.5000000000000000 0.5000000000000000 -0.0000000000000000	0.784025
Zr	0.0000000000000000 0.0000000000000000 -0.0000000000000000	2.458570
Zr	0.5000000000000000 0.5000000000000000 0.5000000000000000	2.458570
N	0.0000000000000000 0.1523938002406237 0.5000000000000000	-0.236839
N	0.5000000000000000 0.6523937822406223 -0.0000000000000000	-0.236839
N	0.0000000000000000 0.8476062177593777 0.5000000000000000	-0.236839
N	0.5000000000000000 0.3476062177593778 -0.0000000000000000	-0.236839
N	0.8476062177593777 0.0000000000000000 0.5000000000000000	-0.236840
N	0.3476062177593778 0.5000000000000000 -0.0000000000000000	-0.236840
N	0.1523938002406237 0.0000000000000000 0.5000000000000000	-0.236840
N	0.6523937822406223 0.5000000000000000 -0.0000000000000000	-0.236840
F	0.0000000000000000 0.0000000000000000 0.7465907598143644	-0.606970
F	0.5000000000000000 0.5000000000000000 0.2465908488143681	-0.606970
F	0.0000000000000000 0.0000000000000000 0.2534091661856366	-0.606970
F	0.5000000000000000 0.5000000000000000 0.7534092401856357	-0.606970
F	0.6031430055539345 0.6031430055539345 0.5000000000000000	-0.664291
F	0.6031430055539345 0.3968569944460652 0.5000000000000000	-0.664291
F	0.3968569944460652 0.6031430055539345 0.5000000000000000	-0.664291
F	0.3968569944460652 0.3968569944460652 0.5000000000000000	-0.664291
F	0.1031430225539326 0.1031430225539326 -0.0000000000000000	-0.664291
F	0.8968569944460655 0.8968569944460655 -0.0000000000000000	-0.664291
F	0.8968569944460655 0.1031430225539326 -0.0000000000000000	-0.664291
F	0.1031430225539326 0.8968569944460655 -0.0000000000000000	-0.664291
	  	
