#======================================================================

# CRYSTAL DATA

#----------------------------------------------------------------------

data_VESTA_phase_1


_pd_phase_name                         ZrFSIX_3_Ni
_cell_length_a                         14.08096
_cell_length_b                         14.08096
_cell_length_c                         8.17674
_cell_angle_alpha                      90
_cell_angle_beta                       90
_cell_angle_gamma                      90
_symmetry_space_group_name_H-M         P 1
_symmetry_Int_Tables_number            1

loop_
_symmetry_equiv_pos_as_xyz
   x, y, z

loop_
   _atom_site_label
   _atom_site_fract_x
   _atom_site_fract_y
   _atom_site_fract_z
   _atom_site_charge
C	0.2714487167015035 0.4505805078394342 0.6353709689521707	0.067671
C	0.2285512832984966 0.0494194961605663 0.6353709689521707	0.067671
C	0.2285512832984966 0.4505805078394342 0.3646289990478266	0.067673
C	0.2714487167015035 0.0494194961605663 0.3646289990478266	0.067674
C	0.0494194961605663 0.2714487167015035 0.3646289990478266	0.067674
C	0.4505805078394342 0.2285512832984966 0.3646289990478266	0.067673
C	0.4505805078394342 0.2714487167015035 0.6353709689521707	0.067676
C	0.0494194961605663 0.2285512832984966 0.6353709689521707	0.067676
C	0.9505804398394353 0.2285512832984966 0.6353709689521707	0.067795
C	0.5494195601605647 0.2714487167015035 0.6353709689521707	0.067796
C	0.5494195601605647 0.2285512832984966 0.3646289990478266	0.067798
C	0.9505804398394353 0.2714487167015035 0.3646289990478266	0.067797
C	0.7285513002984944 0.0494194961605663 0.3646289990478266	0.067674
C	0.7714486997015056 0.4505805078394342 0.3646289990478266	0.067673
C	0.7714486997015056 0.0494194961605663 0.6353709689521707	0.067676
C	0.7285513002984944 0.4505805078394342 0.6353709689521707	0.067675
C	0.4505805078394342 0.7285513002984944 0.6353709689521707	0.067671
C	0.0494194961605663 0.7714486997015056 0.6353709689521707	0.067672
C	0.0494194961605663 0.7285513002984944 0.3646289990478266	0.067674
C	0.4505805078394342 0.7714486997015056 0.3646289990478266	0.067673
C	0.2285512832984966 0.5494195601605647 0.3646289990478266	0.067799
C	0.2714487167015035 0.9505804398394353 0.3646289990478266	0.067798
C	0.2714487167015035 0.5494195601605647 0.6353709689521707	0.067801
C	0.2285512832984966 0.9505804398394353 0.6353709689521707	0.067800
C	0.7714486997015056 0.9505804398394353 0.6353709689521707	0.067796
C	0.7285513002984944 0.5494195601605647 0.6353709689521707	0.067796
C	0.7285513002984944 0.9505804398394353 0.3646289990478266	0.067797
C	0.7714486997015056 0.5494195601605647 0.3646289990478266	0.067798
C	0.5494195601605647 0.7714486997015056 0.3646289990478266	0.067799
C	0.9505804398394353 0.7285513002984944 0.3646289990478266	0.067798
C	0.9505804398394353 0.7714486997015056 0.6353709689521707	0.067800
C	0.5494195601605647 0.7285513002984944 0.6353709689521707	0.067801
H	0.2894898613940649 0.4122061983302737 0.7467090909558426	0.106988
H	0.2105101046059324 0.0877938016697263 0.7467090909558426	0.106988
H	0.2105101046059324 0.4122061983302737 0.2532908780441588	0.106988
H	0.2894898613940649 0.0877938016697263 0.2532908780441588	0.106988
H	0.0877938016697263 0.2894898613940649 0.2532908780441588	0.106988
H	0.4122061983302737 0.2105101046059324 0.2532908780441588	0.106988
H	0.4122061983302737 0.2894898613940649 0.7467090909558426	0.106987
H	0.0877938016697263 0.2105101046059324 0.7467090909558426	0.106988
H	0.9122062663302792 0.2105101046059324 0.7467090909558426	0.106983
H	0.5877937336697208 0.2894898613940649 0.7467090909558426	0.106983
H	0.5877937336697208 0.2105101046059324 0.2532908780441588	0.106984
H	0.9122062663302792 0.2894898613940649 0.2532908780441588	0.106983
H	0.7105100706059370 0.0877938016697263 0.2532908780441588	0.106986
H	0.7894899293940630 0.4122061983302737 0.2532908780441588	0.106986
H	0.7894899293940630 0.0877938016697263 0.7467090909558426	0.106985
H	0.7105100706059370 0.4122061983302737 0.7467090909558426	0.106986
H	0.4122061983302737 0.7105100706059370 0.7467090909558426	0.106986
H	0.0877938016697263 0.7894899293940630 0.7467090909558426	0.106986
H	0.0877938016697263 0.7105100706059370 0.2532908780441588	0.106986
H	0.4122061983302737 0.7894899293940630 0.2532908780441588	0.106986
H	0.2105101046059324 0.5877937336697208 0.2532908780441588	0.106983
H	0.2894898613940649 0.9122062663302792 0.2532908780441588	0.106983
H	0.2894898613940649 0.5877937336697208 0.7467090909558426	0.106983
H	0.2105101046059324 0.9122062663302792 0.7467090909558426	0.106983
H	0.7894899293940630 0.9122062663302792 0.7467090909558426	0.106981
H	0.7105100706059370 0.5877937336697208 0.7467090909558426	0.106981
H	0.7105100706059370 0.9122062663302792 0.2532908780441588	0.106981
H	0.7894899293940630 0.5877937336697208 0.2532908780441588	0.106981
H	0.5877937336697208 0.7894899293940630 0.2532908780441588	0.106981
H	0.9122062663302792 0.7105100706059370 0.2532908780441588	0.106981
H	0.9122062663302792 0.7894899293940630 0.7467090909558426	0.106980
H	0.5877937336697208 0.7105100706059370 0.7467090909558426	0.106981
Ni	0.2500000000000000 0.2500000000000000 0.5000000000000000	0.773491
Ni	0.7500000340000028 0.2500000000000000 0.5000000000000000	0.773495
Ni	0.2500000000000000 0.7500000340000028 0.5000000000000000	0.773495
Ni	0.7500000340000028 0.7500000340000028 0.5000000000000000	0.773503
Zr	0.2500000000000000 0.2500000000000000 0.0000000000000000	2.441841
Zr	0.7500000340000028 0.2500000000000000 0.0000000000000000	2.441667
Zr	0.2500000000000000 0.7500000340000028 0.0000000000000000	2.441667
Zr	0.7500000340000028 0.7500000340000028 0.0000000000000000	2.441572
F	0.2500000000000000 0.2500000000000000 0.7432534092944354	-0.620340
F	0.2500000000000000 0.2500000000000000 0.2567465907055648	-0.620341
F	0.3508754743418943 0.3508754743418943 0.9703672436578734	-0.643176
F	0.1491245256581058 0.1491245256581058 0.9703672436578734	-0.643174
F	0.1491245256581058 0.3508754743418943 0.0296327773421248	-0.643174
F	0.3508754743418943 0.1491245256581058 0.0296327773421248	-0.643174
F	0.7500000340000028 0.2500000000000000 0.7432534092944354	-0.620320
F	0.7500000340000028 0.2500000000000000 0.2567465907055648	-0.620320
F	0.8508755083418968 0.3508754743418943 0.0296327773421248	-0.643143
F	0.6491244916581032 0.1491245256581058 0.0296327773421248	-0.643141
F	0.6491244916581032 0.3508754743418943 0.9703672436578734	-0.643142
F	0.8508755083418968 0.1491245256581058 0.9703672436578734	-0.643142
F	0.2500000000000000 0.7500000340000028 0.7432534092944354	-0.620320
F	0.2500000000000000 0.7500000340000028 0.2567465907055648	-0.620320
F	0.3508754743418943 0.8508755083418968 0.0296327773421248	-0.643143
F	0.1491245256581058 0.6491244916581032 0.0296327773421248	-0.643141
F	0.1491245256581058 0.8508755083418968 0.9703672436578734	-0.643142
F	0.3508754743418943 0.6491244916581032 0.9703672436578734	-0.643142
F	0.7500000340000028 0.7500000340000028 0.7432534092944354	-0.620309
F	0.7500000340000028 0.7500000340000028 0.2567465907055648	-0.620310
F	0.8508755083418968 0.8508755083418968 0.9703672436578734	-0.643125
F	0.6491244916581032 0.6491244916581032 0.9703672436578734	-0.643123
F	0.6491244916581032 0.8508755083418968 0.0296327773421248	-0.643124
F	0.8508755083418968 0.6491244916581032 0.0296327773421248	-0.643124
N	0.4007236227940397 0.2500000000000000 0.5000000000000000	-0.199914
N	0.0992763772059604 0.2500000000000000 0.5000000000000000	-0.199914
N	0.2500000000000000 0.4007236227940397 0.5000000000000000	-0.199913
N	0.2500000000000000 0.0992763772059604 0.5000000000000000	-0.199913
N	0.9007236227940397 0.2500000000000000 0.5000000000000000	-0.199946
N	0.5992763772059603 0.2500000000000000 0.5000000000000000	-0.199945
N	0.7500000340000028 0.4007236227940397 0.5000000000000000	-0.199914
N	0.7500000340000028 0.0992763772059604 0.5000000000000000	-0.199913
N	0.4007236227940397 0.7500000340000028 0.5000000000000000	-0.199914
N	0.0992763772059604 0.7500000340000028 0.5000000000000000	-0.199914
N	0.2500000000000000 0.9007236227940397 0.5000000000000000	-0.199946
N	0.2500000000000000 0.5992763772059603 0.5000000000000000	-0.199945
N	0.9007236227940397 0.7500000340000028 0.5000000000000000	-0.199946
N	0.5992763772059603 0.7500000340000028 0.5000000000000000	-0.199946
N	0.7500000340000028 0.9007236227940397 0.5000000000000000	-0.199945
N	0.7500000340000028 0.5992763772059603 0.5000000000000000	-0.199944
	  	
