#======================================================================

# CRYSTAL DATA

#----------------------------------------------------------------------

data_VESTA_phase_1


_pd_phase_name                         ZrFSIX_2_Zn_i
_cell_length_a                         14.00422
_cell_length_b                         14.00422
_cell_length_c                         8.33066
_cell_angle_alpha                      90
_cell_angle_beta                       90
_cell_angle_gamma                      90
_symmetry_space_group_name_H-M         P 1
_symmetry_Int_Tables_number            1

loop_
_symmetry_equiv_pos_as_xyz
   x, y, z

loop_
   _atom_site_label
   _atom_site_fract_x
   _atom_site_fract_y
   _atom_site_fract_z
   _atom_site_charge
C	-0.0000000000000000 0.3037710077132745 0.3550485040762991	-0.155989
C	-0.0000000000000000 0.2047628804184259 0.3609112124692484	0.111054
C	0.5000000000000000 0.8037710077132743 0.8550485330762979	-0.155989
C	0.5000000000000000 0.7047628984184273 0.8609112124692484	0.111054
C	-0.0000000000000000 0.6962289922867257 0.3550485040762991	-0.155991
C	-0.0000000000000000 0.7952371015815727 0.3609112124692484	0.111056
C	0.5000000000000000 0.1962290092867236 0.8550485330762979	-0.155991
C	0.5000000000000000 0.2952371015815726 0.8609112124692484	0.111056
C	0.6962289922867257 -0.0000000000000000 0.3550485040762991	-0.155989
C	0.7952371015815727 -0.0000000000000000 0.3609112124692484	0.111055
C	0.1962290092867236 0.5000000000000000 0.8550485330762979	-0.155989
C	0.2952371015815726 0.5000000000000000 0.8609112124692484	0.111055
C	0.3037710077132745 -0.0000000000000000 0.3550485040762991	-0.155991
C	0.2047628804184259 -0.0000000000000000 0.3609112124692484	0.111058
C	0.8037710077132743 0.5000000000000000 0.8550485330762979	-0.155991
C	0.7047628984184273 0.5000000000000000 0.8609112124692484	0.111058
C	-0.0000000000000000 0.3037710077132745 0.6449514669237021	-0.155987
C	-0.0000000000000000 0.2047628804184259 0.6390887875307516	0.111054
C	0.5000000000000000 0.8037710077132743 0.1449514959237009	-0.155987
C	0.5000000000000000 0.7047628984184273 0.1390887725307538	0.111054
C	-0.0000000000000000 0.6962289922867257 0.6449514669237021	-0.155990
C	-0.0000000000000000 0.7952371015815727 0.6390887875307516	0.111057
C	0.5000000000000000 0.1962290092867236 0.1449514959237009	-0.155990
C	0.5000000000000000 0.2952371015815726 0.1390887725307538	0.111057
C	0.3037710077132745 -0.0000000000000000 0.6449514669237021	-0.155989
C	0.2047628804184259 -0.0000000000000000 0.6390887875307516	0.111058
C	0.8037710077132743 0.5000000000000000 0.1449514959237009	-0.155990
C	0.7047628984184273 0.5000000000000000 0.1390887725307538	0.111058
C	0.6962289922867257 -0.0000000000000000 0.6449514669237021	-0.155987
C	0.7952371015815727 -0.0000000000000000 0.6390887875307516	0.111056
C	0.1962290092867236 0.5000000000000000 0.1449514959237009	-0.155987
C	0.2952371015815726 0.5000000000000000 0.1390887725307538	0.111056
C	-0.0000000000000000 0.4564581786717229 0.5000000000000000	-0.094369
C	-0.0000000000000000 0.3555090599082715 0.5000000000000000	0.163755
C	0.5000000000000000 0.9564582126717259 0.0000000000000000	-0.094369
C	0.5000000000000000 0.8555090249082725 0.0000000000000000	0.163756
C	-0.0000000000000000 0.5435418213282769 0.5000000000000000	-0.094117
C	-0.0000000000000000 0.6444909750917275 0.5000000000000000	0.163725
C	0.5000000000000000 0.0435418003282718 0.0000000000000000	-0.094117
C	0.5000000000000000 0.1444909750917278 0.0000000000000000	0.163725
C	0.5435418213282769 -0.0000000000000000 0.5000000000000000	-0.094369
C	0.6444909750917275 -0.0000000000000000 0.5000000000000000	0.163755
C	0.0435418003282717 0.5000000000000000 0.0000000000000000	-0.094369
C	0.1444909750917278 0.5000000000000000 0.0000000000000000	0.163756
C	0.4564581786717229 -0.0000000000000000 0.5000000000000000	-0.094117
C	0.3555090599082715 -0.0000000000000000 0.5000000000000000	0.163725
C	0.9564582126717259 0.5000000000000000 0.0000000000000000	-0.094117
C	0.8555090249082725 0.5000000000000000 0.0000000000000000	0.163725
H	-0.0000000000000000 0.3403236712807003 0.2396617464283782	0.122458
H	-0.0000000000000000 0.1635060346773339 0.2503258793803521	0.085667
H	0.5000000000000000 0.8403236712807002 0.7396617464283785	0.122458
H	0.5000000000000000 0.6635059816773325 0.7503259093803547	0.085667
H	-0.0000000000000000 0.6596763287192998 0.2396617464283782	0.122456
H	-0.0000000000000000 0.8364940183226675 0.2503258793803521	0.085667
H	0.5000000000000000 0.1596763287192997 0.7396617464283785	0.122456
H	0.5000000000000000 0.3364939833226603 0.7503259093803547	0.085667
H	0.6596763287192998 -0.0000000000000000 0.2396617464283782	0.122458
H	0.8364940183226675 -0.0000000000000000 0.2503258793803521	0.085667
H	0.1596763287192997 0.5000000000000000 0.7396617464283785	0.122458
H	0.3364939833226603 0.5000000000000000 0.7503259093803547	0.085667
H	0.3403236712807003 -0.0000000000000000 0.2396617464283782	0.122456
H	0.1635060346773339 -0.0000000000000000 0.2503258793803521	0.085667
H	0.8403236712807002 0.5000000000000000 0.7396617464283785	0.122456
H	0.6635059816773325 0.5000000000000000 0.7503259093803547	0.085667
H	-0.0000000000000000 0.3403236712807003 0.7603382535716215	0.122455
H	-0.0000000000000000 0.1635060346773339 0.7496740326196476	0.085667
H	0.5000000000000000 0.8403236712807002 0.2603382535716219	0.122455
H	0.5000000000000000 0.6635059816773325 0.2496741206196479	0.085667
H	-0.0000000000000000 0.6596763287192998 0.7603382535716215	0.122454
H	-0.0000000000000000 0.8364940183226675 0.7496740326196476	0.085667
H	0.5000000000000000 0.1596763287192997 0.2603382535716219	0.122454
H	0.5000000000000000 0.3364939833226603 0.2496741206196479	0.085667
H	0.3403236712807003 -0.0000000000000000 0.7603382535716215	0.122454
H	0.1635060346773339 -0.0000000000000000 0.7496740326196476	0.085667
H	0.8403236712807002 0.5000000000000000 0.2603382535716219	0.122454
H	0.6635059816773325 0.5000000000000000 0.2496741206196479	0.085667
H	0.6596763287192998 -0.0000000000000000 0.7603382535716215	0.122455
H	0.8364940183226675 -0.0000000000000000 0.7496740326196476	0.085667
H	0.1596763287192997 0.5000000000000000 0.2603382535716219	0.122455
H	0.3364939833226603 0.5000000000000000 0.2496741206196479	0.085667
Zn	-0.0000000000000000 -0.0000000000000000 0.5000000000000000	0.750124
Zn	0.5000000000000000 0.5000000000000000 0.0000000000000000	0.750124
Zr	-0.0000000000000000 -0.0000000000000000 0.0000000000000000	2.457301
Zr	0.5000000000000000 0.5000000000000000 0.5000000000000000	2.457301
N	-0.0000000000000000 0.1554253160526819 0.5000000000000000	-0.226160
N	0.5000000000000000 0.6554252980526802 0.0000000000000000	-0.226160
N	-0.0000000000000000 0.8445747019473198 0.5000000000000000	-0.226160
N	0.5000000000000000 0.3445747019473195 0.0000000000000000	-0.226160
N	0.8445747019473198 -0.0000000000000000 0.5000000000000000	-0.226160
N	0.3445747019473195 0.5000000000000000 0.0000000000000000	-0.226160
N	0.1554253160526819 -0.0000000000000000 0.5000000000000000	-0.226160
N	0.6554252980526802 0.5000000000000000 0.0000000000000000	-0.226160
F	-0.0000000000000000 -0.0000000000000000 0.7497139790925835	-0.600455
F	0.5000000000000000 0.5000000000000000 0.2497140680925873	-0.600455
F	-0.0000000000000000 -0.0000000000000000 0.2502859469074177	-0.600455
F	0.5000000000000000 0.5000000000000000 0.7502860209074165	-0.600455
F	0.6024789943771809 0.6024789943771809 0.5000000000000000	-0.671346
F	0.6024789943771809 0.3975210056228190 0.5000000000000000	-0.671345
F	0.3975210056228190 0.6024789943771809 0.5000000000000000	-0.671346
F	0.3975210056228190 0.3975210056228190 0.5000000000000000	-0.671346
F	0.1024790113771787 0.1024790113771787 0.0000000000000000	-0.671346
F	0.8975210056228191 0.8975210056228191 0.0000000000000000	-0.671346
F	0.8975210056228191 0.1024790113771787 0.0000000000000000	-0.671346
F	0.1024790113771787 0.8975210056228191 0.0000000000000000	-0.671345
	  	
