#======================================================================

# CRYSTAL DATA

#----------------------------------------------------------------------

data_VESTA_phase_1


_pd_phase_name                         ZrFSIX_3_Cd
_cell_length_a                         14.97626
_cell_length_b                         14.97626
_cell_length_c                         8.52494
_cell_angle_alpha                      90
_cell_angle_beta                       90
_cell_angle_gamma                      90
_symmetry_space_group_name_H-M         P 1
_symmetry_Int_Tables_number            1

loop_
_symmetry_equiv_pos_as_xyz
   x, y, z

loop_
   _atom_site_label
   _atom_site_fract_x
   _atom_site_fract_y
   _atom_site_fract_z
   _atom_site_charge
C	0.2689171194613958 0.4534333169336799 0.6315018257657179	0.066869
C	0.2310828805386042 0.0465666870663204 0.6315018257657179	0.066869
C	0.2310828805386042 0.4534333169336799 0.3684981422342793	0.066870
C	0.2689171194613958 0.0465666870663204 0.3684981422342793	0.066871
C	0.0465666870663204 0.2689171194613958 0.3684981422342793	0.066871
C	0.4534333169336799 0.2310828805386042 0.3684981422342793	0.066870
C	0.4534333169336799 0.2689171194613958 0.6315018257657179	0.066873
C	0.0465666870663204 0.2310828805386042 0.6315018257657179	0.066873
C	0.9534332489336813 0.2310828805386042 0.6315018257657179	0.066874
C	0.5465667510663187 0.2689171194613958 0.6315018257657179	0.066875
C	0.5465667510663187 0.2310828805386042 0.3684981422342793	0.066876
C	0.9534332489336813 0.2689171194613958 0.3684981422342793	0.066876
C	0.7310828975386019 0.0465666870663204 0.3684981422342793	0.066871
C	0.7689171024613981 0.4534333169336799 0.3684981422342793	0.066870
C	0.7689171024613981 0.0465666870663204 0.6315018257657179	0.066873
C	0.7310828975386019 0.4534333169336799 0.6315018257657179	0.066872
C	0.4534333169336799 0.7310828975386019 0.6315018257657179	0.066869
C	0.0465666870663204 0.7689171024613981 0.6315018257657179	0.066870
C	0.0465666870663204 0.7310828975386019 0.3684981422342793	0.066871
C	0.4534333169336799 0.7689171024613981 0.3684981422342793	0.066871
C	0.2310828805386042 0.5465667510663187 0.3684981422342793	0.066876
C	0.2689171194613958 0.9534332489336813 0.3684981422342793	0.066876
C	0.2689171194613958 0.5465667510663187 0.6315018257657179	0.066879
C	0.2310828805386042 0.9534332489336812 0.6315018257657179	0.066877
C	0.7689171024613981 0.9534332489336813 0.6315018257657179	0.066874
C	0.7310828975386019 0.5465667510663187 0.6315018257657179	0.066875
C	0.7310828975386019 0.9534332489336813 0.3684981422342793	0.066875
C	0.7689171024613981 0.5465667510663187 0.3684981422342793	0.066876
C	0.5465667510663187 0.7689171024613981 0.3684981422342793	0.066876
C	0.9534332489336812 0.7310828975386019 0.3684981422342793	0.066875
C	0.9534332489336812 0.7689171024613981 0.6315018257657179	0.066878
C	0.5465667510663187 0.7310828975386019 0.6315018257657179	0.066878
H	0.2842451783951113 0.4157973142027178 0.7381303811852465	0.114810
H	0.2157547876048857 0.0842026857972822 0.7381303811852465	0.114810
H	0.2157547876048857 0.4157973142027178 0.2618695878147545	0.114810
H	0.2842451783951113 0.0842026857972822 0.2618695878147545	0.114810
H	0.0842026857972822 0.2842451783951113 0.2618695878147545	0.114809
H	0.4157973142027178 0.2157547876048857 0.2618695878147545	0.114809
H	0.4157973142027178 0.2842451783951113 0.7381303811852465	0.114808
H	0.0842026857972822 0.2157547876048857 0.7381303811852464	0.114809
H	0.9157973822027236 0.2157547876048857 0.7381303811852464	0.114806
H	0.5842026177972764 0.2842451783951113 0.7381303811852464	0.114806
H	0.5842026177972764 0.2157547876048857 0.2618695878147545	0.114807
H	0.9157973822027236 0.2842451783951113 0.2618695878147545	0.114806
H	0.7157547536048903 0.0842026857972822 0.2618695878147545	0.114809
H	0.7842452463951097 0.4157973142027178 0.2618695878147545	0.114809
H	0.7842452463951097 0.0842026857972822 0.7381303811852464	0.114808
H	0.7157547536048903 0.4157973142027178 0.7381303811852464	0.114809
H	0.4157973142027178 0.7157547536048903 0.7381303811852465	0.114810
H	0.0842026857972822 0.7842452463951097 0.7381303811852464	0.114810
H	0.0842026857972822 0.7157547536048903 0.2618695878147545	0.114810
H	0.4157973142027178 0.7842452463951097 0.2618695878147545	0.114810
H	0.2157547876048857 0.5842026177972764 0.2618695878147545	0.114806
H	0.2842451783951113 0.9157973822027236 0.2618695878147545	0.114805
H	0.2842451783951113 0.5842026177972764 0.7381303811852464	0.114805
H	0.2157547876048857 0.9157973822027236 0.7381303811852465	0.114805
H	0.7842452463951097 0.9157973822027236 0.7381303811852464	0.114806
H	0.7157547536048903 0.5842026177972764 0.7381303811852464	0.114806
H	0.7157547536048903 0.9157973822027236 0.2618695878147545	0.114807
H	0.7842452463951097 0.5842026177972764 0.2618695878147545	0.114806
H	0.5842026177972764 0.7842452463951097 0.2618695878147545	0.114805
H	0.9157973822027236 0.7157547536048903 0.2618695878147545	0.114806
H	0.9157973822027236 0.7842452463951097 0.7381303811852464	0.114805
H	0.5842026177972764 0.7157547536048903 0.7381303811852465	0.114805
Cd	0.2500000000000000 0.2500000000000000 0.5000000000000000	0.842892
Cd	0.7500000340000028 0.2500000000000000 0.5000000000000000	0.842892
Cd	0.2500000000000000 0.7500000340000028 0.5000000000000000	0.842892
Cd	0.7500000340000028 0.7500000340000028 0.5000000000000000	0.842892
Zr	0.2500000000000000 0.2500000000000000 -0.0000000000000000	2.459760
Zr	0.7500000340000028 0.2500000000000000 -0.0000000000000000	2.459750
Zr	0.2500000000000000 0.7500000340000028 -0.0000000000000000	2.459750
Zr	0.7500000340000028 0.7500000340000028 -0.0000000000000000	2.459739
F	0.2500000000000000 0.2500000000000000 0.7561478307350841	-0.628507
F	0.2500000000000000 0.2500000000000000 0.2438521692649152	-0.628507
F	0.3448976489577963 0.3448976489577962 -0.0349907254004430	-0.669100
F	0.1551023510422036 0.1551023510422036 -0.0349907254004429	-0.669099
F	0.1551023510422036 0.3448976489577963 0.0349907464004410	-0.669099
F	0.3448976489577963 0.1551023510422035 0.0349907464004410	-0.669099
F	0.7500000340000028 0.2500000000000000 0.7561478307350841	-0.628506
F	0.7500000340000028 0.2500000000000000 0.2438521692649152	-0.628506
F	0.8448976829577995 0.3448976489577963 0.0349907464004410	-0.669101
F	0.6551023170422005 0.1551023510422036 0.0349907464004410	-0.669099
F	0.6551023170422005 0.3448976489577963 -0.0349907254004429	-0.669101
F	0.8448976829577995 0.1551023510422036 -0.0349907254004429	-0.669101
F	0.2500000000000000 0.7500000340000028 0.7561478307350842	-0.628506
F	0.2500000000000000 0.7500000340000028 0.2438521692649152	-0.628506
F	0.3448976489577962 0.8448976829577995 0.0349907464004410	-0.669101
F	0.1551023510422035 0.6551023170422005 0.0349907464004410	-0.669099
F	0.1551023510422036 0.8448976829577995 -0.0349907254004430	-0.669101
F	0.3448976489577962 0.6551023170422005 -0.0349907254004429	-0.669101
F	0.7500000340000028 0.7500000340000028 0.7561478307350841	-0.628505
F	0.7500000340000028 0.7500000340000028 0.2438521692649152	-0.628506
F	0.8448976829577995 0.8448976829577995 -0.0349907254004430	-0.669103
F	0.6551023170422005 0.6551023170422005 -0.0349907254004429	-0.669101
F	0.6551023170422005 0.8448976829577995 0.0349907464004410	-0.669102
F	0.8448976829577995 0.6551023170422005 0.0349907464004410	-0.669102
N	0.4075916765676226 0.2500000000000000 0.5000000000000000	-0.205668
N	0.0924083234323774 0.2500000000000000 0.5000000000000000	-0.205668
N	0.2500000000000000 0.4075916765676226 0.5000000000000000	-0.205668
N	0.2500000000000000 0.0924083234323774 0.5000000000000000	-0.205667
N	0.9075916765676227 0.2500000000000000 0.5000000000000000	-0.205670
N	0.5924083234323773 0.2500000000000000 0.5000000000000000	-0.205669
N	0.7500000340000028 0.4075916765676226 0.5000000000000000	-0.205668
N	0.7500000340000028 0.0924083234323774 0.5000000000000000	-0.205668
N	0.4075916765676226 0.7500000340000028 0.5000000000000000	-0.205668
N	0.0924083234323774 0.7500000340000028 0.5000000000000000	-0.205668
N	0.2500000000000000 0.9075916765676227 0.5000000000000000	-0.205670
N	0.2500000000000000 0.5924083234323773 0.5000000000000000	-0.205669
N	0.9075916765676227 0.7500000340000028 0.5000000000000000	-0.205670
N	0.5924083234323773 0.7500000340000028 0.5000000000000000	-0.205669
N	0.7500000340000028 0.9075916765676227 0.5000000000000000	-0.205670
N	0.7500000340000028 0.5924083234323773 0.5000000000000000	-0.205669
	  	
