#======================================================================

# CRYSTAL DATA

#----------------------------------------------------------------------

data_VESTA_phase_1


_pd_phase_name                         ZrFSIX_3_Zn
_cell_length_a                         14.37466
_cell_length_b                         14.37466
_cell_length_c                         8.25633
_cell_angle_alpha                      90
_cell_angle_beta                       90
_cell_angle_gamma                      90
_symmetry_space_group_name_H-M         P 1
_symmetry_Int_Tables_number            1

loop_
_symmetry_equiv_pos_as_xyz
   x, y, z

loop_
   _atom_site_label
   _atom_site_fract_x
   _atom_site_fract_y
   _atom_site_fract_z
   _atom_site_charge
C	0.2709153959716367 0.4514913815662016 0.6345666615878749	0.065407
C	0.2290846040283632 0.0485086224337988 0.6345666615878749	0.065408
C	0.2290846040283632 0.4514913815662016 0.3654333064121231	0.065408
C	0.2709153959716367 0.0485086224337988 0.3654333064121231	0.065409
C	0.0485086224337988 0.2709153959716367 0.3654333064121231	0.065408
C	0.4514913815662016 0.2290846040283632 0.3654333064121231	0.065407
C	0.4514913815662016 0.2709153959716367 0.6345666615878749	0.065409
C	0.0485086224337988 0.2290846040283632 0.6345666615878749	0.065409
C	0.9514913135662025 0.2290846040283632 0.6345666615878749	0.065409
C	0.5485086864337975 0.2709153959716367 0.6345666615878749	0.065410
C	0.5485086864337975 0.2290846040283632 0.3654333064121231	0.065410
C	0.9514913135662025 0.2709153959716367 0.3654333064121231	0.065410
C	0.7290846210283612 0.0485086224337988 0.3654333064121231	0.065408
C	0.7709153789716388 0.4514913815662016 0.3654333064121231	0.065407
C	0.7709153789716388 0.0485086224337988 0.6345666615878749	0.065409
C	0.7290846210283612 0.4514913815662016 0.6345666615878749	0.065408
C	0.4514913815662016 0.7290846210283612 0.6345666615878749	0.065407
C	0.0485086224337988 0.7709153789716388 0.6345666615878749	0.065408
C	0.0485086224337988 0.7290846210283612 0.3654333064121231	0.065408
C	0.4514913815662016 0.7709153789716388 0.3654333064121231	0.065408
C	0.2290846040283632 0.5485086864337975 0.3654333064121231	0.065410
C	0.2709153959716367 0.9514913135662025 0.3654333064121231	0.065409
C	0.2709153959716367 0.5485086864337975 0.6345666615878749	0.065411
C	0.2290846040283632 0.9514913135662025 0.6345666615878749	0.065410
C	0.7709153789716388 0.9514913135662025 0.6345666615878749	0.065409
C	0.7290846210283612 0.5485086864337975 0.6345666615878749	0.065409
C	0.7290846210283612 0.9514913135662025 0.3654333064121231	0.065409
C	0.7709153789716388 0.5485086864337975 0.3654333064121231	0.065410
C	0.5485086864337975 0.7709153789716388 0.3654333064121231	0.065410
C	0.9514913135662025 0.7290846210283612 0.3654333064121231	0.065409
C	0.9514913135662025 0.7709153789716388 0.6345666615878749	0.065410
C	0.5485086864337975 0.7290846210283612 0.6345666615878749	0.065410
H	0.2887260042725150 0.4133505826039831 0.7445267365982230	0.109431
H	0.2112739617274821 0.0866494173960169 0.7445267365982230	0.109431
H	0.2112739617274821 0.4133505826039831 0.2554732324017784	0.109432
H	0.2887260042725150 0.0866494173960169 0.2554732324017784	0.109431
H	0.0866494173960169 0.2887260042725150 0.2554732324017784	0.109431
H	0.4133505826039831 0.2112739617274821 0.2554732324017784	0.109431
H	0.4133505826039831 0.2887260042725150 0.7445267365982230	0.109430
H	0.0866494173960169 0.2112739617274821 0.7445267365982230	0.109430
H	0.9133506506039892 0.2112739617274821 0.7445267365982230	0.109429
H	0.5866493493960108 0.2887260042725150 0.7445267365982230	0.109429
H	0.5866493493960108 0.2112739617274821 0.2554732324017784	0.109430
H	0.9133506506039892 0.2887260042725150 0.2554732324017784	0.109430
H	0.7112739277274867 0.0866494173960169 0.2554732324017784	0.109431
H	0.7887260722725133 0.4133505826039831 0.2554732324017784	0.109431
H	0.7887260722725133 0.0866494173960169 0.7445267365982230	0.109430
H	0.7112739277274867 0.4133505826039831 0.7445267365982230	0.109431
H	0.4133505826039831 0.7112739277274867 0.7445267365982230	0.109431
H	0.0866494173960169 0.7887260722725133 0.7445267365982230	0.109431
H	0.0866494173960169 0.7112739277274867 0.2554732324017784	0.109432
H	0.4133505826039831 0.7887260722725133 0.2554732324017784	0.109432
H	0.2112739617274821 0.5866493493960108 0.2554732324017784	0.109429
H	0.2887260042725150 0.9133506506039892 0.2554732324017784	0.109429
H	0.2887260042725150 0.5866493493960108 0.7445267365982230	0.109428
H	0.2112739617274821 0.9133506506039892 0.7445267365982230	0.109429
H	0.7887260722725133 0.9133506506039892 0.7445267365982230	0.109429
H	0.7112739277274867 0.5866493493960108 0.7445267365982230	0.109429
H	0.7112739277274867 0.9133506506039892 0.2554732324017784	0.109430
H	0.7887260722725133 0.5866493493960108 0.2554732324017784	0.109430
H	0.5866493493960108 0.7887260722725133 0.2554732324017784	0.109429
H	0.9133506506039892 0.7112739277274867 0.2554732324017784	0.109429
H	0.9133506506039892 0.7887260722725133 0.7445267365982230	0.109429
H	0.5866493493960108 0.7112739277274867 0.7445267365982230	0.109429
Zn	0.2500000000000000 0.2500000000000000 0.5000000000000000	0.749167
Zn	0.7500000340000028 0.2500000000000000 0.5000000000000000	0.749167
Zn	0.2500000000000000 0.7500000340000028 0.5000000000000000	0.749167
Zn	0.7500000340000028 0.7500000340000028 0.5000000000000000	0.749166
Zr	0.2500000000000000 0.2500000000000000 -0.0000000000000000	2.440459
Zr	0.7500000340000028 0.2500000000000000 -0.0000000000000000	2.440454
Zr	0.2500000000000000 0.7500000340000028 -0.0000000000000000	2.440454
Zr	0.7500000340000028 0.7500000340000028 -0.0000000000000000	2.440449
F	0.2500000000000000 0.2500000000000000 0.7461171892715185	-0.611650
F	0.2500000000000000 0.2500000000000000 0.2538828107284818	-0.611650
F	0.3487861688637269 0.3487861688637269 -0.0335912526191373	-0.649821
F	0.1512138311362730 0.1512138311362730 -0.0335912526191373	-0.649819
F	0.1512138311362730 0.3487861688637269 0.0335912736191355	-0.649820
F	0.3487861688637268 0.1512138311362730 0.0335912736191355	-0.649820
F	0.7500000340000028 0.2500000000000000 0.7461171892715185	-0.611649
F	0.7500000340000028 0.2500000000000000 0.2538828107284818	-0.611650
F	0.8487862028637293 0.3487861688637268 0.0335912736191355	-0.649822
F	0.6512137971362707 0.1512138311362730 0.0335912736191355	-0.649820
F	0.6512137971362707 0.3487861688637269 -0.0335912526191373	-0.649821
F	0.8487862028637293 0.1512138311362730 -0.0335912526191373	-0.649821
F	0.2500000000000000 0.7500000340000028 0.7461171892715185	-0.611649
F	0.2500000000000000 0.7500000340000028 0.2538828107284818	-0.611650
F	0.3487861688637269 0.8487862028637293 0.0335912736191355	-0.649822
F	0.1512138311362730 0.6512137971362707 0.0335912736191355	-0.649820
F	0.1512138311362730 0.8487862028637293 -0.0335912526191373	-0.649821
F	0.3487861688637269 0.6512137971362707 -0.0335912526191373	-0.649821
F	0.7500000340000028 0.7500000340000028 0.7461171892715185	-0.611649
F	0.7500000340000028 0.7500000340000028 0.2538828107284818	-0.611649
F	0.8487862028637293 0.8487862028637293 -0.0335912526191373	-0.649823
F	0.6512137971362707 0.6512137971362707 -0.0335912526191373	-0.649821
F	0.6512137971362707 0.8487862028637293 0.0335912736191355	-0.649822
F	0.8487862028637293 0.6512137971362707 0.0335912736191355	-0.649822
N	0.4029552062572653 0.2500000000000000 0.5000000000000000	-0.191437
N	0.0970447937427348 0.2500000000000000 0.5000000000000000	-0.191437
N	0.2500000000000000 0.4029552062572653 0.5000000000000000	-0.191437
N	0.2500000000000000 0.0970447937427348 0.5000000000000000	-0.191437
N	0.9029552062572654 0.2500000000000000 0.5000000000000000	-0.191438
N	0.5970447937427346 0.2500000000000000 0.5000000000000000	-0.191437
N	0.7500000340000028 0.4029552062572653 0.5000000000000000	-0.191437
N	0.7500000340000028 0.0970447937427348 0.5000000000000000	-0.191437
N	0.4029552062572653 0.7500000340000028 0.5000000000000000	-0.191437
N	0.0970447937427348 0.7500000340000028 0.5000000000000000	-0.191437
N	0.2500000000000000 0.9029552062572654 0.5000000000000000	-0.191438
N	0.2500000000000000 0.5970447937427346 0.5000000000000000	-0.191437
N	0.9029552062572654 0.7500000340000028 0.5000000000000000	-0.191438
N	0.5970447937427346 0.7500000340000028 0.5000000000000000	-0.191438
N	0.7500000340000028 0.9029552062572654 0.5000000000000000	-0.191438
N	0.7500000340000028 0.5970447937427346 0.5000000000000000	-0.191437
	  	
