#======================================================================

# CRYSTAL DATA

#----------------------------------------------------------------------

data_VESTA_phase_1


_pd_phase_name                         ZrFSIX_4_Co_i
_cell_length_a                         23.74459
_cell_length_b                         20.58396
_cell_length_c                         9.57846
_cell_angle_alpha                      90
_cell_angle_beta                       90
_cell_angle_gamma                      90
_symmetry_space_group_name_H-M         P 1
_symmetry_Int_Tables_number            1

loop_
_symmetry_equiv_pos_as_xyz
   x, y, z

loop_
   _atom_site_label
   _atom_site_fract_x
   _atom_site_fract_y
   _atom_site_fract_z
   _atom_site_charge
C	0.4151074254789502 0.5962020094281580 0.6303428445252318	0.104514
C	0.3718132178562610 0.5510331719518865 0.6280652072843529	-0.167696
C	0.2771635545786820 0.4494133408077907 0.6274172039442585	-0.114964
C	0.2317349603900031 0.4070087009041884 0.6262612832555685	-0.111950
C	0.1315331156567544 0.3208528515112846 0.6252292351628597	-0.164819
C	0.0852497891791692 0.2797855741405098 0.6288068375775268	0.094425
C	0.9151075084789471 0.0962020204281625 0.6303428445252318	0.104459
C	0.8718131758562642 0.0510331139518886 0.6280652072843529	-0.167718
C	0.7771635755786874 0.9494133878077912 0.6274172039442585	-0.114964
C	0.7317349403900015 0.9070087469041852 0.6262612832555685	-0.111950
C	0.6315331156567549 0.8208528985112851 0.6252292351628597	-0.164828
C	0.5852497741791644 0.7797856671405067 0.6288068375775268	0.094455
C	0.5848925745210491 0.4037979445718384 0.1303428525252328	0.104514
C	0.6281868241437358 0.4489668740481176 0.1280652222843504	-0.167696
C	0.7228364244213126 0.5505866121922088 0.1274172119442588	-0.114963
C	0.7682650596099985 0.5929912990958115 0.1262612912555687	-0.111950
C	0.8684668843432451 0.6791471484887153 0.1252292421628640	-0.164819
C	0.9147502258208356 0.7202143798594937 0.1288068525775244	0.094424
C	0.0848925855210540 0.9037980375718423 0.1303428525252328	0.104514
C	0.1281867821437392 0.9489667820481168 0.1280652222843504	-0.167696
C	0.2228364664213162 0.0505866591922095 0.1274172119442588	-0.114964
C	0.2682650186099987 0.0929912760958132 0.1262612912555687	-0.111950
C	0.3684669263432491 0.1791471594887127 0.1252292421628640	-0.164827
C	0.4147502258208354 0.2202144498594922 0.1288068525775244	0.094454
C	0.5848925745210491 0.5962020094281580 0.8696571244747692	0.104514
C	0.6281868241437358 0.5510331719518865 0.8719347617156481	-0.167696
C	0.7228364244213126 0.4494133408077907 0.8725828270557405	-0.114964
C	0.7682650596099985 0.4070087009041884 0.8737387477444306	-0.111950
C	0.8684668843432451 0.3208528515112846 0.8747707958371393	-0.164820
C	0.9147502258208356 0.2797855741405098 0.8711931934224723	0.094425
C	0.0848925855210540 0.0962020204281625 0.8696571244747692	0.104514
C	0.1281867821437392 0.0510331139518886 0.8719347617156481	-0.167695
C	0.2228364664213162 0.9494133878077912 0.8725828270557405	-0.114964
C	0.2682650186099987 0.9070087469041852 0.8737387477444305	-0.111950
C	0.3684669263432491 0.8208528985112851 0.8747707958371393	-0.164829
C	0.4147502258208354 0.7797856671405067 0.8711931934224723	0.094455
C	0.4151074254789502 0.4037979445718384 0.3696571554747679	0.104514
C	0.3718132178562610 0.4489668740481176 0.3719347617156482	-0.167696
C	0.2771635545786820 0.5505866121922088 0.3725827960557419	-0.114963
C	0.2317349603900031 0.5929912990958115 0.3737386857444331	-0.111950
C	0.1315331156567544 0.6791471484887153 0.3747707338371339	-0.164820
C	0.0852497891791692 0.7202143798594937 0.3711931314224742	0.094424
C	0.9151075084789471 0.9037980375718423 0.3696571554747679	0.104459
C	0.8718131758562642 0.9489667820481168 0.3719347617156482	-0.167719
C	0.7771635755786874 0.0505866591922094 0.3725827960557419	-0.114963
C	0.7317349403900015 0.0929912760958132 0.3737386857444331	-0.111951
C	0.6315331156567549 0.1791471594887127 0.3747707338371339	-0.164828
C	0.5852497741791644 0.2202144498594922 0.3711931314224742	0.094454
C	0.5848925745210491 0.4037979445718384 0.3696571554747680	0.104514
C	0.6281868241437358 0.4489668740481176 0.3719347617156482	-0.167697
C	0.7228364244213126 0.5505866121922088 0.3725827960557419	-0.114963
C	0.7682650596099985 0.5929912990958115 0.3737386857444331	-0.111950
C	0.8684668843432451 0.6791471484887153 0.3747707338371339	-0.164820
C	0.9147502258208356 0.7202143798594937 0.3711931314224742	0.094424
C	0.0848925855210540 0.9037980375718423 0.3696571554747680	0.104515
C	0.1281867821437392 0.9489667820481168 0.3719347617156482	-0.167696
C	0.2228364664213162 0.0505866591922095 0.3725827960557419	-0.114964
C	0.2682650186099987 0.0929912760958132 0.3737386857444331	-0.111950
C	0.3684669263432491 0.1791471594887127 0.3747707338371339	-0.164828
C	0.4147502258208354 0.2202144498594922 0.3711931314224742	0.094455
C	0.4151074254789502 0.5962020094281580 0.8696571244747692	0.104514
C	0.3718132178562610 0.5510331719518865 0.8719347617156481	-0.167696
C	0.2771635545786820 0.4494133408077907 0.8725828270557405	-0.114964
C	0.2317349603900031 0.4070087009041884 0.8737387477444305	-0.111950
C	0.1315331156567544 0.3208528515112846 0.8747707958371393	-0.164820
C	0.0852497891791692 0.2797855741405098 0.8711931934224723	0.094425
C	0.9151075084789471 0.0962020204281624 0.8696571244747692	0.104459
C	0.8718131758562642 0.0510331139518886 0.8719347617156481	-0.167719
C	0.7771635755786874 0.9494133878077912 0.8725828270557405	-0.114964
C	0.7317349403900015 0.9070087469041852 0.8737387477444305	-0.111950
C	0.6315331156567549 0.8208528985112851 0.8747707958371393	-0.164829
C	0.5852497741791644 0.7797856671405067 0.8711931934224723	0.094455
C	0.4151074254789502 0.4037979445718384 0.1303428525252328	0.104514
C	0.3718132178562610 0.4489668740481176 0.1280652222843504	-0.167697
C	0.2771635545786820 0.5505866121922088 0.1274172119442588	-0.114963
C	0.2317349603900031 0.5929912990958115 0.1262612912555687	-0.111950
C	0.1315331156567544 0.6791471484887153 0.1252292421628640	-0.164820
C	0.0852497891791692 0.7202143798594937 0.1288068525775244	0.094425
C	0.9151075084789471 0.9037980375718423 0.1303428525252328	0.104460
C	0.8718131758562642 0.9489667820481168 0.1280652222843504	-0.167719
C	0.7771635755786874 0.0505866591922094 0.1274172119442588	-0.114963
C	0.7317349403900015 0.0929912760958132 0.1262612912555687	-0.111950
C	0.6315331156567549 0.1791471594887127 0.1252292421628640	-0.164829
C	0.5852497741791644 0.2202144498594922 0.1288068525775244	0.094455
C	0.5848925745210491 0.5962020094281580 0.6303428445252318	0.104514
C	0.6281868241437358 0.5510331719518865 0.6280652072843529	-0.167696
C	0.7228364244213126 0.4494133408077907 0.6274172039442585	-0.114964
C	0.7682650596099985 0.4070087009041884 0.6262612832555685	-0.111950
C	0.8684668843432451 0.3208528515112846 0.6252292351628597	-0.164820
C	0.9147502258208356 0.2797855741405098 0.6288068375775268	0.094425
C	0.0848925855210540 0.0962020204281624 0.6303428445252318	0.104515
C	0.1281867821437392 0.0510331139518886 0.6280652072843529	-0.167695
C	0.2228364664213162 0.9494133878077912 0.6274172039442585	-0.114964
C	0.2682650186099987 0.9070087469041852 0.6262612832555685	-0.111950
C	0.3684669263432491 0.8208528985112851 0.6252292351628597	-0.164829
C	0.4147502258208354 0.7797856671405067 0.6288068375775268	0.094455
C	0.3478505658731840 0.5245097398084926 0.7500000149999977	0.120994
C	0.3013653682002068 0.4749454272976230 0.7500000149999977	0.072821
C	0.2063467147229326 0.3854221887687231 0.7500000149999977	0.065382
C	0.1565912785762444 0.3423467905576859 0.7500000149999977	0.102560
C	0.8478505238731875 0.0245097228084948 0.7500000149999977	0.121000
C	0.8013654302002057 0.9749453802976227 0.7500000149999977	0.072821
C	0.7063467147229323 0.8854222117687208 0.7500000149999977	0.065381
C	0.6565912785762446 0.8423467215576836 0.7500000149999977	0.102564
C	0.6521494341268161 0.4754903061915040 0.2500000000000000	0.120993
C	0.6986345697997943 0.5250545727023770 0.2500000000000000	0.072820
C	0.7936532852770677 0.6145778352312795 0.2500000000000000	0.065382
C	0.8434087624237624 0.6576531864423159 0.2500000000000000	0.102560
C	0.1521494451268135 0.9754903531915045 0.2500000000000000	0.120994
C	0.1986346527997910 0.0250545757023738 0.2500000000000000	0.072821
C	0.2936532852770676 0.1145777882312788 0.2500000000000000	0.065382
C	0.3434087214237558 0.1576532204423184 0.2500000000000000	0.102564
C	0.6521494341268161 0.5245097398084926 0.7500000149999977	0.120993
C	0.6986345697997943 0.4749454272976230 0.7500000149999977	0.072821
C	0.7936532852770677 0.3854221887687231 0.7500000149999977	0.065382
C	0.8434087624237624 0.3423467905576859 0.7500000149999977	0.102561
C	0.1521494451268135 0.0245097228084948 0.7500000149999977	0.120993
C	0.1986346527997910 0.9749453802976227 0.7500000149999977	0.072821
C	0.2936532852770676 0.8854222117687208 0.7500000149999977	0.065381
C	0.3434087214237558 0.8423467215576836 0.7500000149999977	0.102564
C	0.3478505658731840 0.4754903061915040 0.2500000000000000	0.120994
C	0.3013653682002069 0.5250545727023770 0.2500000000000000	0.072821
C	0.2063467147229326 0.6145778352312795 0.2500000000000000	0.065382
C	0.1565912785762444 0.6576531864423159 0.2500000000000000	0.102560
C	0.8478505238731875 0.9754903531915045 0.2500000000000000	0.121001
C	0.8013654302002057 0.0250545757023738 0.2500000000000000	0.072820
C	0.7063467147229323 0.1145777882312788 0.2500000000000000	0.065382
C	0.6565912785762446 0.1576532204423184 0.2500000000000000	0.102564
H	0.4326955762816257 0.6148601127533815 0.5330081648431438	0.104753
H	0.3586414390003458 0.5382669559138102 0.5243543403216213	0.106846
H	0.2932666953649904 0.4614514100465153 0.5258578465379675	0.086465
H	0.2163077944784196 0.3909763601852155 0.5249122867138265	0.104476
H	0.1474625539131491 0.3351365535730945 0.5232503593818514	0.124044
H	0.0657565289742944 0.2621343104905537 0.5327719465343006	0.108427
H	0.9326955342816221 0.1148601477533809 0.5330081648431438	0.104781
H	0.8586413980003458 0.0382668919138052 0.5243543403216213	0.106849
H	0.7932666743649923 0.9614514100465149 0.5258578465379675	0.086466
H	0.7163077524784163 0.8909762911852211 0.5249122867138265	0.104476
H	0.6474625439131482 0.8351365535730940 0.5232503593818514	0.124045
H	0.5657565599742932 0.7621342874905550 0.5327719465343006	0.108420
H	0.5673044237183744 0.3851398872466183 0.0330082268431421	0.104753
H	0.6413585609996544 0.4617330910861899 0.0243543403216217	0.106846
H	0.7067333256350077 0.5385485439534813 0.0258579085379652	0.086465
H	0.7836922475215837 0.6090236168147783 0.0249122257138246	0.104476
H	0.8525374560868518 0.6648634004269022 0.0232503593818513	0.124044
H	0.9342433990257070 0.7378657125094450 0.0327719155343021	0.108426
H	0.0673044297183748 0.8851398872466185 0.0330082268431421	0.104754
H	0.1413586019996542 0.9617330910861901 0.0243543403216217	0.106846
H	0.2067333256350077 0.0385485869534811 0.0258579085379652	0.086466
H	0.2836922055215805 0.1090236508147813 0.0249122257138246	0.104476
H	0.3525374560868515 0.1648634234269002 0.0232503593818514	0.124044
H	0.4342434400257067 0.2378656895094465 0.0327719155343021	0.108420
H	0.5673044237183744 0.6148601127533815 -0.0330081838431421	0.104753
H	0.6413585609996544 0.5382669559138102 -0.0243543673216274	0.106846
H	0.7067333256350077 0.4614514100465153 -0.0258578645379615	0.086465
H	0.7836922475215837 0.3909763601852155 -0.0249122797138222	0.104476
H	0.8525374560868518 0.3351365535730945 -0.0232503593818515	0.124044
H	0.9342433990257070 0.2621343104905537 -0.0327719535343051	0.108426
H	0.0673044297183748 0.1148601477533809 -0.0330081838431421	0.104753
H	0.1413586019996542 0.0382668919138052 -0.0243543673216274	0.106846
H	0.2067333256350077 0.9614514100465149 -0.0258578645379615	0.086465
H	0.2836922055215805 0.8909762911852211 -0.0249122797138222	0.104476
H	0.3525374560868515 0.8351365535730940 -0.0232503593818515	0.124045
H	0.4342434400257067 0.7621342874905550 -0.0327719535343051	0.108420
H	0.4326955762816257 0.3851398872466183 0.4669918041568567	0.104753
H	0.3586414390003458 0.4617330910861899 0.4756456906783773	0.106846
H	0.2932666953649904 0.5385485439534813 0.4741421224620339	0.086465
H	0.2163077944784196 0.6090236168147783 0.4750876822861749	0.104476
H	0.1474625539131491 0.6648634004269022 0.4767496096181495	0.124043
H	0.0657565289742944 0.7378657125094450 0.4672280534656989	0.108426
H	0.9326955342816221 0.8851398872466185 0.4669918041568567	0.104781
H	0.8586413980003458 0.9617330910861901 0.4756456906783773	0.106849
H	0.7932666743649923 0.0385485869534811 0.4741421224620339	0.086465
H	0.7163077524784163 0.1090236508147813 0.4750876822861749	0.104476
H	0.6474625439131482 0.1648634234269002 0.4767496096181495	0.124044
H	0.5657565599742932 0.2378656895094465 0.4672280534656989	0.108420
H	0.5673044237183744 0.3851398872466183 0.4669918041568567	0.104753
H	0.6413585609996544 0.4617330910861899 0.4756456906783773	0.106846
H	0.7067333256350077 0.5385485439534813 0.4741421224620339	0.086465
H	0.7836922475215837 0.6090236168147783 0.4750876822861749	0.104475
H	0.8525374560868518 0.6648634004269022 0.4767496096181495	0.124043
H	0.9342433990257070 0.7378657125094450 0.4672280534656989	0.108426
H	0.0673044297183748 0.8851398872466185 0.4669918041568567	0.104753
H	0.1413586019996542 0.9617330910861901 0.4756456906783773	0.106846
H	0.2067333256350077 0.0385485869534811 0.4741421224620339	0.086465
H	0.2836922055215805 0.1090236508147813 0.4750876822861749	0.104475
H	0.3525374560868515 0.1648634234269002 0.4767496096181495	0.124044
H	0.4342434400257067 0.2378656895094465 0.4672280534656989	0.108420
H	0.4326955762816257 0.6148601127533815 -0.0330081838431421	0.104753
H	0.3586414390003458 0.5382669559138102 -0.0243543673216274	0.106846
H	0.2932666953649904 0.4614514100465153 -0.0258578645379615	0.086465
H	0.2163077944784196 0.3909763601852155 -0.0249122797138222	0.104475
H	0.1474625539131491 0.3351365535730945 -0.0232503593818515	0.124043
H	0.0657565289742944 0.2621343104905537 -0.0327719535343051	0.108427
H	0.9326955342816221 0.1148601477533809 -0.0330081838431421	0.104781
H	0.8586413980003458 0.0382668919138052 -0.0243543673216274	0.106849
H	0.7932666743649923 0.9614514100465149 -0.0258578645379615	0.086466
H	0.7163077524784163 0.8909762911852211 -0.0249122797138222	0.104475
H	0.6474625439131482 0.8351365535730940 -0.0232503593818515	0.124044
H	0.5657565599742932 0.7621342874905550 -0.0327719535343051	0.108420
H	0.4326955762816257 0.3851398872466183 0.0330082268431421	0.104753
H	0.3586414390003458 0.4617330910861899 0.0243543403216217	0.106846
H	0.2932666953649904 0.5385485439534813 0.0258579085379652	0.086465
H	0.2163077944784196 0.6090236168147783 0.0249122257138246	0.104475
H	0.1474625539131491 0.6648634004269022 0.0232503593818514	0.124043
H	0.0657565289742944 0.7378657125094450 0.0327719155343021	0.108427
H	0.9326955342816221 0.8851398872466185 0.0330082268431421	0.104781
H	0.8586413980003458 0.9617330910861901 0.0243543403216217	0.106849
H	0.7932666743649923 0.0385485869534811 0.0258579085379652	0.086466
H	0.7163077524784163 0.1090236508147813 0.0249122257138246	0.104475
H	0.6474625439131482 0.1648634234269002 0.0232503593818514	0.124044
H	0.5657565599742932 0.2378656895094465 0.0327719155343021	0.108420
H	0.5673044237183744 0.6148601127533815 0.5330081648431438	0.104753
H	0.6413585609996544 0.5382669559138102 0.5243543403216213	0.106846
H	0.7067333256350077 0.4614514100465153 0.5258578465379675	0.086465
H	0.7836922475215837 0.3909763601852155 0.5249122867138265	0.104475
H	0.8525374560868518 0.3351365535730945 0.5232503593818514	0.124044
H	0.9342433990257070 0.2621343104905537 0.5327719465343006	0.108427
H	0.0673044297183748 0.1148601477533809 0.5330081648431438	0.104753
H	0.1413586019996542 0.0382668919138052 0.5243543403216213	0.106846
H	0.2067333256350077 0.9614514100465149 0.5258578465379675	0.086465
H	0.2836922055215805 0.8909762911852211 0.5249122867138265	0.104475
H	0.3525374560868515 0.8351365535730940 0.5232503593818514	0.124044
H	0.4342434400257067 0.7621342874905550 0.5327719465343006	0.108420
Co	0.5000000000000000 0.6886663130241341 0.7500000149999977	0.580755
Co	0.0000000000000000 0.1886663710241316 0.7500000149999977	0.580799
Co	0.5000000000000000 0.3113336169758675 0.2500000000000000	0.580755
Co	0.0000000000000000 0.8113336869758659 0.2500000000000000	0.580798
F	0.5000000000000000 0.6846753083505935 0.4719480869636896	-0.657139
F	0.0000000000000000 0.1846753433505932 0.4719480869636896	-0.657144
F	0.5000000000000000 0.3153246686494008 -0.0280519130363103	-0.657139
F	0.0000000000000000 0.8153246916494065 -0.0280519130363103	-0.657144
F	0.5000000000000000 0.6846753083505935 0.0280518990363092	-0.657138
F	0.0000000000000000 0.1846753433505932 0.0280518990363092	-0.657144
F	0.5000000000000000 0.3153246686494008 0.5280518830363077	-0.657138
F	0.0000000000000000 0.8153246916494065 0.5280518830363077	-0.657144
F	0.4386056756852546 0.7514055282648627 0.2500000000000000	-0.700028
F	0.5603994722986062 0.6116368915445662 0.2500000000000000	-0.689392
F	0.9386056756852547 0.2514055282648628 0.2500000000000000	-0.700028
F	0.0603994932986116 0.1116368915445661 0.2500000000000000	-0.689392
F	0.5613942833147456 0.2485944487351387 0.7500000149999977	-0.700027
F	0.4396005277013937 0.3883631084554340 0.7500000149999977	-0.689392
F	0.0613943353147498 0.7485944717351373 0.7500000149999977	-0.700027
F	0.9396005277013938 0.8883631084554338 0.7500000149999977	-0.689394
F	0.5613942833147455 0.7514055282648627 0.2500000000000000	-0.700028
F	0.4396005277013937 0.6116368915445662 0.2500000000000000	-0.689392
F	0.0613943353147498 0.2514055282648628 0.2500000000000000	-0.700028
F	0.9396005277013938 0.1116368915445661 0.2500000000000000	-0.689394
F	0.4386056756852546 0.2485944487351387 0.7500000149999977	-0.700028
F	0.5603994722986062 0.3883631084554340 0.7500000149999977	-0.689392
F	0.9386056756852545 0.7485944717351373 0.7500000149999977	-0.700027
F	0.0603994932986116 0.8883631084554338 0.7500000149999977	-0.689392
N	0.4372766299838257 0.6187494724617847 0.7500000149999977	-0.192783
N	0.5625815017368291 0.7590800343763405 0.7500000149999977	-0.200820
N	0.9372765889838186 0.1187494604617839 0.7500000149999977	-0.192693
N	0.0625814757368269 0.2590800113763354 0.7500000149999977	-0.200800
N	0.5627233700161745 0.3812505275382150 0.2500000000000000	-0.192783
N	0.4374184982631710 0.2409199886236648 0.2500000000000000	-0.200821
N	0.0627233700161742 0.8812505275382153 0.2500000000000000	-0.192795
N	0.9374185392631708 0.7409199656236595 0.2500000000000000	-0.200801
N	0.5627233700161745 0.6187494724617847 0.7500000149999977	-0.192784
N	0.4374184982631710 0.7590800343763405 0.7500000149999977	-0.200820
N	0.0627233700161742 0.1187494604617839 0.7500000149999977	-0.192796
N	0.9374185392631708 0.2590800113763354 0.7500000149999977	-0.200802
N	0.4372766299838257 0.3812505275382150 0.2500000000000000	-0.192783
N	0.5625815017368291 0.2409199886236648 0.2500000000000000	-0.200821
N	0.9372765889838186 0.8812505275382153 0.2500000000000000	-0.192693
N	0.0625814757368269 0.7409199656236595 0.2500000000000000	-0.200799
Zr	0.5000000000000000 0.6822779832738100 0.2500000000000000	2.477912
Zr	0.0000000000000000 0.1822780072738118 0.2500000000000000	2.477915
Zr	0.5000000000000000 0.3177219697261899 0.7500000149999977	2.477912
Zr	0.0000000000000000 0.8177220167261900 0.7500000149999977	2.477915
	  	
