#======================================================================

# CRYSTAL DATA

#----------------------------------------------------------------------

data_VESTA_phase_1


_pd_phase_name                         ZrFSIX_7_Zn
_cell_length_a                         19.25734
_cell_length_b                         19.25734
_cell_length_c                         8.35033
_cell_angle_alpha                      90
_cell_angle_beta                       90
_cell_angle_gamma                      90
_symmetry_space_group_name_H-M         P 1
_symmetry_Int_Tables_number            1

loop_
_symmetry_equiv_pos_as_xyz
   x, y, z

loop_
   _atom_site_label
   _atom_site_fract_x
   _atom_site_fract_y
   _atom_site_fract_z
   _atom_site_charge
C	0.6637283872693556 0.8722535783054224 0.6925075968990939	0.105195
C	0.6128991125288786 0.9234401118991807 0.6964968357087622	-0.174173
C	0.5794697251261232 0.8891679820256442 0.4311391594591419	-0.169278
C	0.6305113638068509 0.8384781578418583 0.4371538917322829	0.101859
C	0.8362716127306444 0.6277464216945776 0.6925075968990939	0.105196
C	0.8871009374711184 0.5765599391008199 0.6964968357087622	-0.174175
C	0.9205301738738791 0.6108320689743494 0.4311391594591419	-0.169278
C	0.8694886361931491 0.6615218421581417 0.4371538917322829	0.101858
C	0.6277464216945776 0.6637283872693556 0.6925075968990939	0.105196
C	0.5765599391008199 0.6128991125288786 0.6964968357087622	-0.174174
C	0.6108320689743494 0.5794697251261232 0.4311391594591419	-0.169277
C	0.6615218421581417 0.6305113638068509 0.4371538917322829	0.101859
C	0.8722535783054224 0.8362716127306444 0.6925075968990939	0.105196
C	0.9234401118991807 0.8871009374711184 0.6964968357087622	-0.174173
C	0.8891679820256442 0.9205301738738791 0.4311391594591419	-0.169277
C	0.8384781578418583 0.8694886361931491 0.4371538917322829	0.101859
C	0.3362715877306460 0.3722535283054185 0.3074924331009085	0.105195
C	0.3871008874711214 0.4234401118991805 0.3035031942912402	-0.174173
C	0.4205302748738768 0.3891679310256508 0.5688608405408584	-0.169277
C	0.3694885851931555 0.3384781578418581 0.5628461382677196	0.101857
C	0.1637284122693540 0.1277464586945840 0.3074924331009085	0.105195
C	0.1128991125288786 0.0765598881008196 0.3035031942912402	-0.174172
C	0.0794697061261180 0.1108320689743493 0.5688608405408584	-0.169275
C	0.1305114148068445 0.1615218301581408 0.5628461382677196	0.101857
C	0.3722535283054185 0.1637284122693540 0.3074924331009085	0.105196
C	0.4234401118991805 0.1128991125288786 0.3035031942912402	-0.174172
C	0.3891679310256508 0.0794697061261180 0.5688608405408584	-0.169274
C	0.3384781578418581 0.1305114148068445 0.5628461382677196	0.101858
C	0.1277464586945840 0.3362715877306460 0.3074924331009085	0.105196
C	0.0765598881008196 0.3871008874711214 0.3035031942912402	-0.174172
C	0.1108320689743493 0.4205302748738768 0.5688608405408584	-0.169276
C	0.1615218301581408 0.3694885851931555 0.5628461382677196	0.101858
C	0.4335608038134990 0.0696077895972603 0.4370122873953693	0.142975
C	0.4875585419163146 0.0165723205694047 0.4344321519049903	-0.121289
C	0.0664391961865010 0.4303922034027427 0.4370122873953693	0.142982
C	0.0124414260836829 0.4834276154305970 0.4344321519049903	-0.121327
C	0.4303922034027427 0.4335608038134990 0.4370122873953693	0.142982
C	0.4834276154305970 0.4875585419163146 0.4344321519049903	-0.121327
C	0.0696077895972603 0.0664391961865010 0.4370122873953693	0.142975
C	0.0165723205694047 0.0124414260836829 0.4344321519049903	-0.121289
C	0.5664391961865011 0.5696077965972574 0.5629877126046305	0.142980
C	0.5124415090836791 0.5165723345693987 0.5655678770950086	-0.121244
C	0.9335607538135019 0.9303921534027385 0.5629877126046305	0.142974
C	0.9875585419163144 0.9834277164306020 0.5655678770950086	-0.121269
C	0.5696077965972574 0.9335607538135019 0.5629877126046305	0.142974
C	0.5165723345693987 0.9875585419163144 0.5655678770950086	-0.121269
C	0.9303921534027385 0.5664391961865011 0.5629877126046305	0.142980
C	0.9834277164306020 0.5124415090836791 0.5655678770950086	-0.121244
H	0.6975567948183993 0.8636429433553938 0.7951428592719878	0.094127
H	0.6072549094835770 0.9555071026365884 0.8033167374756073	0.120473
H	0.5467947529573299 0.8928652243047401 0.3249111955259067	0.119730
H	0.6388380799577515 0.8037694860420139 0.3359841600867678	0.094138
H	0.8024432051816007 0.6363570566446062 0.7951428592719878	0.094127
H	0.8927450905164230 0.5444929483634122 0.8033167374756073	0.120473
H	0.9532052980426707 0.6071348266952605 0.3249111955259067	0.119730
H	0.8611619200422485 0.6962305139579861 0.3359841600867678	0.094138
H	0.6363570566446062 0.6975567948183993 0.7951428592719878	0.094127
H	0.5444929483634122 0.6072549094835770 0.8033167374756073	0.120472
H	0.6071348266952605 0.5467947529573299 0.3249111955259067	0.119730
H	0.6962305139579861 0.6388380799577515 0.3359841600867678	0.094138
H	0.8636429433553938 0.8024432051816007 0.7951428592719878	0.094127
H	0.9555071026365884 0.8927450905164230 0.8033167374756073	0.120472
H	0.8928652243047401 0.9532052980426707 0.3249111955259067	0.119729
H	0.8037694860420139 0.8611619200422485 0.3359841600867678	0.094138
H	0.3024432311816027 0.3636428673553946 0.2048571257280146	0.094127
H	0.3927450145164167 0.4555070516365876 0.1966832185243891	0.120472
H	0.4532052980426708 0.3928652243047401 0.6750887744740982	0.119729
H	0.3611619450422539 0.3037695120420162 0.6640158399132321	0.094138
H	0.1975567818183948 0.1363571586446077 0.2048571257280146	0.094127
H	0.1072549604835776 0.0444929643634138 0.1966832185243891	0.120472
H	0.0467946959573288 0.1071348016952620 0.6750887744740982	0.119729
H	0.1388380799577517 0.1962304759579829 0.6640158399132321	0.094138
H	0.3636428673553946 0.1975567818183948 0.2048571257280146	0.094127
H	0.4555070516365876 0.1072549604835776 0.1966832185243891	0.120472
H	0.3928652243047401 0.0467946959573288 0.6750887744740982	0.119729
H	0.3037695120420162 0.1388380799577517 0.6640158399132321	0.094138
H	0.1363571586446077 0.3024432311816027 0.2048571257280146	0.094127
H	0.0444929643634138 0.3927450145164167 0.1966832185243891	0.120472
H	0.1071348016952620 0.4532052980426708 0.6750887744740982	0.119729
H	0.1962304759579829 0.3611619450422539 0.6640158399132321	0.094138
H	0.5065891616302438 0.0015587177542405 0.3159187587928134	0.104900
H	0.9934108893697569 0.4984412542457571 0.3159187587928134	0.104906
H	0.4984412542457571 0.5065891616302438 0.3159187587928134	0.104906
H	0.0015587177542405 0.9934108893697569 0.3159187587928134	0.104900
H	0.4934108383697561 0.5015586957542456 0.6840812712071820	0.104896
H	0.0065891526302468 0.9984412542457574 0.6840812712071820	0.104898
H	0.5015586957542456 0.0065891526302468 0.6840812712071820	0.104898
H	0.9984412542457574 0.4934108383697561 0.6840812712071820	0.104896
Zn	0.2500000000000000 0.2500000000000000 0.4345380569144317	0.743872
Zn	0.7500000000000000 0.7500000000000000 0.5654619430855682	0.743872
Zr	0.2500000000000000 0.2500000000000000 0.9351998831874296	2.464122
Zr	0.7500000000000000 0.7500000000000000 0.0648001018125726	2.464122
F	0.2500000000000000 0.2500000000000000 0.1839433773515551	-0.610972
F	0.2500000000000000 0.2500000000000000 0.6861474715759956	-0.609998
F	0.7500000000000000 0.7500000000000000 0.8160566526484472	-0.610973
F	0.7500000000000000 0.7500000000000000 0.3138525284240044	-0.609996
F	0.3253550545166807 0.3240645863287600 0.9346873465213080	-0.681425
F	0.1746449704833178 0.1759354386712386 0.9346873465213080	-0.681425
F	0.1759354386712386 0.3253550545166807 0.9346873465213080	-0.681425
F	0.3240645863287600 0.1746449704833178 0.9346873465213080	-0.681425
F	0.6746449704833178 0.8240645863287600 0.0653126534786920	-0.681425
F	0.8253550295166822 0.6759354136712400 0.0653126534786920	-0.681425
F	0.8240645863287600 0.8253550295166822 0.0653126534786920	-0.681425
F	0.6759354136712400 0.6746449704833178 0.0653126534786920	-0.681425
N	0.3302020367143125 0.1724063419382467 0.4348095638520393	-0.233998
N	0.1697979882856860 0.3275936830617520 0.4348095638520393	-0.233998
N	0.3275936830617520 0.3302020367143125 0.4348095638520393	-0.233998
N	0.1724063419382467 0.1697979882856860 0.4348095638520393	-0.233998
N	0.6697979632856874 0.6724063169382481 0.5651904361479608	-0.233998
N	0.8302020367143126 0.8275936830617519 0.5651904361479608	-0.233998
N	0.6724063169382481 0.8302020367143126 0.5651904361479608	-0.233998
N	0.8275936830617519 0.6697979632856874 0.5651904361479608	-0.233998
	  	
