#======================================================================

# CRYSTAL DATA

#----------------------------------------------------------------------

data_VESTA_phase_1


_pd_phase_name                         ZrFSIX_2_Fe
_cell_length_a                         14.04268
_cell_length_b                         14.04268
_cell_length_c                         8.22114
_cell_angle_alpha                      90
_cell_angle_beta                       90
_cell_angle_gamma                      90
_symmetry_space_group_name_H-M         P 1
_symmetry_Int_Tables_number            1

loop_
_symmetry_equiv_pos_as_xyz
   x, y, z

loop_
   _atom_site_label
   _atom_site_fract_x
   _atom_site_fract_y
   _atom_site_fract_z
   _atom_site_charge
C	0.5309195244533357 0.7051529588585049 0.1306632775874395	0.100837
C	0.5311923698260641 0.8038984456645727 0.1365815195446173	-0.164815
C	0.4690805455466630 0.2948470411414947 0.1306632775874395	0.100847
C	0.4688075951739367 0.1961015363354259 0.1365815195446173	-0.164813
C	0.2948470411414947 0.5309195244533357 0.1306632775874395	0.100837
C	0.1961015363354259 0.5311923698260641 0.1365815195446173	-0.164814
C	0.7051529588585049 0.4690805455466630 0.1306632775874395	0.100847
C	0.8038984456645727 0.4688075951739367 0.1365815195446173	-0.164813
C	0.4690805455466630 0.7051529588585049 0.8693367224125602	0.100849
C	0.4688075951739367 0.8038984456645727 0.8634184504553801	-0.164815
C	0.5309195244533357 0.2948470411414947 0.8693367224125602	0.100834
C	0.5311923698260641 0.1961015363354259 0.8634184504553801	-0.164811
C	0.7051529588585049 0.5309195244533357 0.8693367224125602	0.100835
C	0.8038984456645727 0.5311923698260641 0.8634184504553801	-0.164812
C	0.2948470411414947 0.4690805455466630 0.8693367224125602	0.100849
C	0.1961015363354259 0.4688075951739367 0.8634184504553801	-0.164815
C	0.5000000000000000 0.1441335360112081 -0.0000000000000000	0.169113
C	0.5000000000000000 0.0434215755180197 -0.0000000000000000	-0.091905
C	0.5000000000000000 0.8558664639887921 -0.0000000000000000	0.169083
C	0.5000000000000000 0.9565783674819864 -0.0000000000000000	-0.091662
C	0.8558664639887921 0.5000000000000000 -0.0000000000000000	0.169113
C	0.9565783674819864 0.5000000000000000 -0.0000000000000000	-0.091905
C	0.1441335360112081 0.5000000000000000 -0.0000000000000000	0.169083
C	0.0434215755180197 0.5000000000000000 -0.0000000000000000	-0.091661
H	0.5561809086868472 0.6640227040431180 0.2346521329061521	0.095494
H	0.5559317694717183 0.8402577063194541 0.2456593462499739	0.131382
H	0.4438190913131527 0.3359772259568834 0.2346521329061521	0.095477
H	0.4440682655282812 0.1597422236805471 0.2456593462499739	0.131383
H	0.3359772259568834 0.5561809086868472 0.2346521329061521	0.095494
H	0.1597422236805471 0.5559317694717183 0.2456593462499739	0.131382
H	0.6640227040431180 0.4438190913131527 0.2346521329061521	0.095477
H	0.8402577063194541 0.4440682655282812 0.2456593462499739	0.131383
H	0.4438190913131527 0.6640227040431180 0.7653478670938479	0.095477
H	0.4440682655282812 0.8402577063194541 0.7543406837500283	0.131382
H	0.5561809086868472 0.3359772259568834 0.7653478670938479	0.095494
H	0.5559317694717183 0.1597422236805471 0.7543406837500283	0.131382
H	0.6640227040431180 0.5561809086868472 0.7653478670938479	0.095494
H	0.8402577063194541 0.5559317694717183 0.7543406837500283	0.131383
H	0.3359772259568834 0.4438190913131527 0.7653478670938479	0.095477
H	0.1597422236805471 0.4440682655282812 0.7543406837500283	0.131381
Fe	0.5000000000000000 0.5000000000000000 -0.0000000000000000	0.617652
Zr	0.5000000000000000 0.5000000000000000 0.5000000000000000	2.458084
F	0.5000000000000000 0.5000000000000000 0.7543482750124940	-0.589755
F	0.5000000000000000 0.5000000000000000 0.2456517549875017	-0.589755
F	0.6021804086690041 0.6021804086690041 0.5000000000000000	-0.676038
F	0.3978196263309952 0.6021804086690041 0.5000000000000000	-0.676038
F	0.3978196263309952 0.3978196263309952 0.5000000000000000	-0.676038
F	0.6021804086690041 0.3978196263309951 0.5000000000000000	-0.676038
N	0.5000000000000000 0.3442152313320407 -0.0000000000000000	-0.201127
N	0.5000000000000000 0.6557847336679601 -0.0000000000000000	-0.201126
N	0.6557847336679601 0.5000000000000000 -0.0000000000000000	-0.201126
N	0.3442152313320407 0.5000000000000000 -0.0000000000000000	-0.201126
	  	
