#======================================================================

# CRYSTAL DATA

#----------------------------------------------------------------------

data_VESTA_phase_1


_pd_phase_name                         ZrFSIX_14_Zn_i
_cell_length_a                         13.38443
_cell_length_b                         13.35576
_cell_length_c                         8.32548
_cell_angle_alpha                      87.13570
_cell_angle_beta                       86.74473
_cell_angle_gamma                      87.25969
_symmetry_space_group_name_H-M         P 1
_symmetry_Int_Tables_number            1

loop_
_symmetry_equiv_pos_as_xyz
   x, y, z

loop_
   _atom_site_label
   _atom_site_fract_x
   _atom_site_fract_y
   _atom_site_fract_z
   _atom_site_charge
C	0.5689140869474903 0.2694182816784904 0.3601449308625255	-0.173440
C	0.4648827185474163 0.2721800594485137 0.3655825121394437	0.109343
C	0.9334754809349434 0.2900259785424758 0.4079784288073785	-0.163807
C	0.0374258486255723 0.2847051960827632 0.3923803528226875	0.112284
C	0.2675466504033382 0.5685980014656311 0.3611146621958986	-0.173786
C	0.2699277265190550 0.4643840744788161 0.3667754940220197	0.113597
C	0.2972065321847101 0.9332212234685233 0.4040103011185634	-0.162581
C	0.2914996708686482 0.0373819144421245 0.3895268627348026	0.111183
C	0.9317351322080947 0.2328311531685658 0.1376764918072385	-0.174191
C	0.0357807294154235 0.2303519210178176 0.1318552546787676	0.110538
C	0.5674680112709666 0.2049057266189248 0.0946057222674353	-0.161658
C	0.4634927402578413 0.2105762910268926 0.1097044198956663	0.112186
C	0.2067658330098557 0.5658939205894209 0.0938524054890413	-0.164257
C	0.2119237941845616 0.4617833725414950 0.1092107918999919	0.112029
C	0.2296587530757797 0.9311875181698754 0.1413654923370843	-0.173015
C	0.2272985859167614 0.0353604031484418 0.1361799286971831	0.111182
C	0.4310184007810692 0.7362784383914532 0.6380851292575391	-0.176976
C	0.5350206727802268 0.7328641288840682 0.6335171326401594	0.114356
C	0.0669444092074573 0.7213870090464487 0.5839099790435176	-0.164483
C	0.9630080315808814 0.7268126702733697 0.5991367519098898	0.115106
C	0.7370232674349936 0.4312524397974324 0.6384934600328555	-0.176680
C	0.7348814427283850 0.5354023311985298 0.6336446633295115	0.114801
C	0.7089659844679860 0.0670544564232956 0.5890642397892795	-0.161528
C	0.7140892590783784 0.9628490465244111 0.6032475521481572	0.114444
C	0.0683881942747117 0.7606909322835851 0.8637382937325381	-0.176789
C	0.9643958270010186 0.7633224845119339 0.8688340839152233	0.115556
C	0.4321796562715529 0.7856787451157811 0.9130244394390609	-0.162181
C	0.5361874940335019 0.7795526047130336 0.8984751136181599	0.114094
C	0.7854819218891478 0.4331838206920413 0.9132945741597813	-0.163298
C	0.7807507325257979 0.5373561757059095 0.8984657295482577	0.114233
C	0.7656632057454514 0.0684317677566765 0.8591894232727445	-0.176681
C	0.7681683525403283 0.9642907165475983 0.8634230007868210	0.114084
C	0.6215184283264558 0.2357648690584159 0.2208538056220771	0.189501
C	0.8793176727458794 0.2625728521120646 0.2795244616780551	0.192613
C	0.2361048130476658 0.6205883088105602 0.2208301750299047	0.191423
C	0.2647439599331046 0.8788241898692103 0.2789639994951000	0.190166
C	0.3783539291058668 0.7626615729623883 0.7816343985809597	0.191802
C	0.1208873192898917 0.7396653293749397 0.7175958703372631	0.193724
C	0.7622304007994994 0.3788883278961448 0.7820639162206681	0.192060
C	0.7360657728073089 0.1210843625250820 0.7182227768635137	0.192750
H	0.6083318210811772 0.2901171607035878 0.4635584110513391	0.113241
H	0.4220456568770368 0.2971290341909881 0.4729933447424225	0.094736
H	0.8948366150624814 0.3148529731397147 0.5184459565419245	0.124687
H	0.0818436426137951 0.3053303350417453 0.4902821935027578	0.093857
H	0.2868817785902771 0.6088212187014163 0.4647990568805209	0.113232
H	0.2933163962795897 0.4217503248427483 0.4745735709848415	0.092671
H	0.3262647296108060 0.8945841078783831 0.5108863966560362	0.126143
H	0.3157022717440517 0.0818250762436577 0.4852881227792282	0.095035
H	0.8920477200335718 0.2148148736867456 0.0329325742832071	0.112695
H	0.0785450215850663 0.2082786139614816 0.0226440598606961	0.093859
H	0.6062898446604961 0.1769383595779969 0.9863508153558056	0.124896
H	0.4192815396653401 0.1872977717693528 0.0133317641348141	0.093546
H	0.1805911274519281 0.6041438526717731 0.9846359612304765	0.125790
H	0.1898278420304809 0.4171857696888050 0.0121319285431266	0.095447
H	0.2077113991970286 0.8912480534724616 0.0390646753929538	0.113620
H	0.2015905756915641 0.0782739319956277 0.0300984861467656	0.094452
H	0.3916195445673381 0.7214612008617709 0.5313667004966580	0.110959
H	0.5781634924362490 0.7130815426313071 0.5235967882795189	0.091310
H	0.1056914521103644 0.7037873375312729 0.4697434554967679	0.125541
H	0.9188573362506932 0.7136463925001888 0.4970092161343866	0.089682
H	0.7222019182428105 0.3913017523317218 0.5320304216909701	0.111088
H	0.7160720547377885 0.5783458314525672 0.5237056386584051	0.092042
H	0.6844177834373849 0.1059650210457496 0.4793178386090367	0.125233
H	0.6935981040811035 0.9186651006295058 0.5046278728590637	0.091235
H	0.1080128810101204 0.7721193029648215 0.9717212996671037	0.109693
H	0.9213708808257748 0.7786507656070186 0.9807978825242513	0.089862
H	0.3932538191857602 0.8076589542415625 0.0249033081763706	0.125034
H	0.5801963136560574 0.7966431402402732 -0.0011405365328976	0.090410
H	0.8064279370544472 0.3945601094334760 0.0253540156732306	0.125648
H	0.7981886939510789 0.5816464492433171 -0.0012488395755402	0.091536
H	0.7834798942526093 0.1080305890759224 0.9644272833106869	0.111690
H	0.7903043763976302 0.9210695738593049 0.9713743025350254	0.091954
N	0.7735106393935255 0.2716809225223110 0.3007437924004379	-0.106678
N	0.2744640935961176 0.7728420178395565 0.2986057652942549	-0.108188
N	0.7273629985637567 0.2262298055615259 0.1999505200974760	-0.106039
N	0.2268259807561389 0.7265314427338755 0.2006793281050656	-0.107181
N	0.2266397595782951 0.7314499798210122 0.6960090024415156	-0.102199
N	0.7276482348313138 0.2271070329637455 0.6981212572252977	-0.104539
N	0.2725368275379731 0.7714414360055556 0.8029752303087105	-0.102081
N	0.7702714830994469 0.2729332290575400 0.8025130001274440	-0.103674
N	0.4127633408080256 0.2439892410471014 0.2424567196313884	-0.222519
N	0.0880596490940612 0.2550432274794109 0.2571019961846926	-0.223165
N	0.2433523609812308 0.4116092160221355 0.2429534305372126	-0.222548
N	0.2569350774372967 0.0878287172458702 0.2582238045911663	-0.221034
N	0.5870623763459193 0.7535694968653008 0.7613228623074062	-0.223032
N	0.9121747090053041 0.7472904919881993 0.7389767887329428	-0.224224
N	0.7557720797327525 0.5879249708823914 0.7612550053220787	-0.222737
N	0.7433249891784390 0.9120866980890051 0.7377993603575230	-0.222418
F	0.3594949639427922 0.1361263338552716 0.7491126185143657	-0.673907
F	0.1458955327112867 0.3632134409194344 0.7538217331514222	-0.672867
F	0.3601055285444481 0.3510225895799178 0.7010599835162299	-0.665073
F	0.1443293688322685 0.1481658857103569 0.7975468363396746	-0.666504
F	0.6380406342254030 0.8607320954222601 0.2537517585677972	-0.671075
F	0.8594157147213634 0.6410055770007360 0.2452112192235752	-0.671175
F	0.6444826059902852 0.6450880501217316 0.2852947978954239	-0.668777
F	0.8538632992698079 0.8559807648688730 0.2150227335054706	-0.668558
F	0.2431065804796799 0.2429660665964521 0.5023771633156148	-0.613895
F	0.2599543180345166 0.2560165202985448 -0.0011352976015804	-0.613780
F	0.7527528077388158 0.7528459582151128 0.4990857132906922	-0.608970
F	0.7452030965486772 0.7484741634149222 0.0001134386299494	-0.609246
Zr	0.2524969320496561 0.2495253809629863 0.7504597239988636	2.460000
Zr	0.7487511498604250 0.7509991043402457 0.2496166635803282	2.457745
Zn	0.2504716342134239 0.2497804584658145 0.2504778151872391	0.744948
Zn	0.7495756527586338 0.7500127915233856 0.7496938669036054	0.744863
	  	
