#======================================================================

# CRYSTAL DATA

#----------------------------------------------------------------------

data_VESTA_phase_1


_pd_phase_name                         ZrFSIX_7_Cd
_cell_length_a                         19.78565
_cell_length_b                         19.78565
_cell_length_c                         8.71591
_cell_angle_alpha                      90
_cell_angle_beta                       90
_cell_angle_gamma                      90
_symmetry_space_group_name_H-M         P 1
_symmetry_Int_Tables_number            1

loop_
_symmetry_equiv_pos_as_xyz
   x, y, z

loop_
   _atom_site_label
   _atom_site_fract_x
   _atom_site_fract_y
   _atom_site_fract_z
   _atom_site_charge
C	0.6572991900779717 0.8742893636555210 0.6891940636190208	0.101960
C	0.6083204567663563 0.9246342921625659 0.6912917954742225	-0.172723
C	0.5787594995619123 0.8933025096356262 0.4340194558576039	-0.170059
C	0.6290718338435014 0.8445696709112420 0.4398688322050589	0.100451
C	0.8427008099220283 0.6257106363444790 0.6891940636190208	0.101960
C	0.8916795932336408 0.5753657588374348 0.6912917954742225	-0.172718
C	0.9212403994380900 0.6066975413643674 0.4340194558576039	-0.170050
C	0.8709281661564986 0.6554303290887580 0.4398688322050589	0.100480
C	0.6257106363444790 0.6572991900779717 0.6891940636190208	0.101959
C	0.5753657588374348 0.6083204567663563 0.6912917954742225	-0.172721
C	0.6066975413643674 0.5787594995619123 0.4340194558576039	-0.170069
C	0.6554303290887580 0.6290718338435014 0.4398688322050589	0.100455
C	0.8742893636555210 0.8427008099220283 0.6891940636190208	0.101961
C	0.9246342921625659 0.8916795932336408 0.6912917954742225	-0.172722
C	0.8933025096356262 0.9212403994380900 0.4340194558576039	-0.170046
C	0.8445696709112420 0.8709281661564986 0.4398688322050589	0.100471
C	0.3427007849220301 0.3742893136555166 0.3108059663809822	0.101959
C	0.3916795432336440 0.4246342921625659 0.3087082345257804	-0.172721
C	0.4212405004380876 0.3933024586356331 0.5659805441423962	-0.170072
C	0.3709281151565049 0.3445696709112420 0.5601311977949435	0.100455
C	0.1572992150779699 0.1257106733444858 0.3108059663809822	0.101959
C	0.1083204567663561 0.0753657078374339 0.3087082345257804	-0.172721
C	0.0787594805619074 0.1066975413643671 0.5659805441423962	-0.170069
C	0.1290718848434951 0.1554303170887570 0.5601311977949435	0.100454
C	0.3742893136555166 0.1572992150779699 0.3108059663809822	0.101959
C	0.4246342921625659 0.1083204567663561 0.3087082345257804	-0.172720
C	0.3933024586356331 0.0787594805619074 0.5659805441423962	-0.170068
C	0.3445696709112420 0.1290718848434951 0.5601311977949435	0.100455
C	0.1257106733444858 0.3427007849220301 0.3108059663809822	0.101959
C	0.0753657078374339 0.3916795432336440 0.3087082345257804	-0.172721
C	0.1066975413643671 0.4212405004380876 0.5659805441423962	-0.170071
C	0.1554303170887570 0.3709281151565049 0.5601311977949435	0.100455
C	0.4354485522199350 0.0675995536635063 0.4385466459087835	0.142855
C	0.4879203757706396 0.0159874384369923 0.4369783754140215	-0.120240
C	0.0645514477800648 0.4324004393364966 0.4385466459087835	0.142886
C	0.0120795922293577 0.4840124975630095 0.4369783754140215	-0.120240
C	0.4324004393364966 0.4354485522199350 0.4385466459087835	0.142885
C	0.4840124975630095 0.4879203757706396 0.4369783754140215	-0.120241
C	0.0675995536635063 0.0645514477800648 0.4385466459087835	0.142856
C	0.0159874384369923 0.0120795922293577 0.4369783754140215	-0.120241
C	0.5645514477800649 0.5675995606635030 0.5614533540912167	0.142858
C	0.5120796752293535 0.5159874524369866 0.5630216535859776	-0.120255
C	0.9354485022199380 0.9324003893364928 0.5614533540912167	0.142867
C	0.9879203757706401 0.9840125985630140 0.5630216535859776	-0.120224
C	0.5675995606635030 0.9354485022199380 0.5614533540912167	0.142868
C	0.5159874524369866 0.9879203757706401 0.5630216535859776	-0.120223
C	0.9324003893364928 0.5645514477800649 0.5614533540912167	0.142863
C	0.9840125985630140 0.5120796752293535 0.5630216535859776	-0.120259
H	0.6884092539624419 0.8643251726797818 0.7900144673938219	0.098722
H	0.6022718433933860 0.9554560701599210 0.7941048618905978	0.120111
H	0.5480116781841671 0.8972742816819516 0.3308167058089624	0.121524
H	0.6394357295685629 0.8126035153173341 0.3406609281932652	0.098557
H	0.8115907460375581 0.6356748273202182 0.7900144673938219	0.098722
H	0.8977281566066140 0.5445439808400797 0.7941048618905978	0.120110
H	0.9519883728158336 0.6027257693180491 0.3308167058089624	0.121497
H	0.8605642704314371 0.6873964846826659 0.3406609281932652	0.098554
H	0.6356748273202182 0.6884092539624419 0.7900144673938219	0.098722
H	0.5445439808400797 0.6022718433933860 0.7941048618905978	0.120111
H	0.6027257693180491 0.5480116781841671 0.3308167058089624	0.121542
H	0.6873964846826659 0.6394357295685629 0.3406609281932652	0.098558
H	0.8643251726797818 0.8115907460375581 0.7900144673938219	0.098722
H	0.9554560701599210 0.8977281566066140 0.7941048618905978	0.120111
H	0.8972742816819516 0.9519883728158336 0.3308167058089624	0.121497
H	0.8126035153173341 0.8605642704314371 0.3406609281932652	0.098554
H	0.3115907720375601 0.3643250966797826 0.2099855176061805	0.098722
H	0.3977280806066074 0.4554560191599203 0.2058950941093987	0.120111
H	0.4519883728158333 0.3972742816819510 0.6691832641910419	0.121542
H	0.3605642954314425 0.3126035413173358 0.6593390718067355	0.098558
H	0.1884092409624372 0.1356749293202195 0.2099855176061805	0.098722
H	0.1022718943933869 0.0445439968400811 0.2058950941093987	0.120111
H	0.0480116211841660 0.1027257443180511 0.6691832641910419	0.121542
H	0.1394357295685630 0.1873964466826631 0.6593390718067355	0.098558
H	0.3643250966797826 0.1884092409624372 0.2099855176061805	0.098722
H	0.4554560191599203 0.1022718943933869 0.2058950941093987	0.120111
H	0.3972742816819510 0.0480116211841660 0.6691832641910419	0.121542
H	0.3126035413173358 0.1394357295685630 0.6593390718067355	0.098558
H	0.1356749293202195 0.3115907720375601 0.2099855176061805	0.098722
H	0.0445439968400811 0.3977280806066074 0.2058950941093987	0.120111
H	0.1027257443180511 0.4519883728158333 0.6691832641910419	0.121542
H	0.1873964466826631 0.3605642954314425 0.6593390718067355	0.098558
H	0.5063314576852133 0.0013047670813743 0.3234224927400067	0.105450
H	0.9936685933147874 0.4986952049186235 0.3234224927400067	0.105445
H	0.4986952049186235 0.5063314576852133 0.3234224927400067	0.105444
H	0.0013047670813743 0.9936685933147874 0.3234224927400067	0.105450
H	0.4936685423147872 0.5013047450813792 0.6765775372599886	0.105452
H	0.0063314486852155 0.9986952049186237 0.6765775372599886	0.105447
H	0.5013047450813792 0.0063314486852155 0.6765775372599886	0.105447
H	0.9986952049186237 0.4936685423147872 0.6765775372599886	0.105453
Cd	0.2500000000000000 0.2500000000000000 0.4325249952107649	0.837092
Cd	0.7500000000000000 0.7500000000000000 0.5674750047892347	0.837091
Zr	0.2500000000000000 0.2500000000000000 0.9327022375098577	2.484737
Zr	0.7500000000000000 0.7500000000000000 0.0672977474901447	2.484737
F	0.2500000000000000 0.2500000000000000 0.1715601705084698	-0.633099
F	0.2500000000000000 0.2500000000000000 0.6938263763418002	-0.630763
F	0.7500000000000000 0.7500000000000000 0.8284398594915329	-0.633099
F	0.7500000000000000 0.7500000000000000 0.3061736236581996	-0.630763
F	0.3237453828731665 0.3222492341459466 0.9324390085783224	-0.694898
F	0.1762546421268317 0.1777507908540519 0.9324390085783224	-0.694898
F	0.1777507908540519 0.3237453828731665 0.9324390085783224	-0.694898
F	0.3222492341459466 0.1762546421268317 0.9324390085783224	-0.694898
F	0.6762546421268317 0.8222492341459460 0.0675609914216777	-0.694898
F	0.8237453578731683 0.6777507658540540 0.0675609914216777	-0.694898
F	0.8222492341459460 0.8237453578731683 0.0675609914216777	-0.694898
F	0.6777507658540540 0.6762546421268318 0.0675609914216777	-0.694898
N	0.3349404621752285 0.1677201102376925 0.4345300053694413	-0.246222
N	0.1650595628247698 0.3322799147623060 0.4345300053694413	-0.246222
N	0.3322799147623060 0.3349404621752285 0.4345300053694413	-0.246222
N	0.1677201102376925 0.1650595628247698 0.4345300053694413	-0.246222
N	0.6650595378247712 0.6677200852376940 0.5654699946305581	-0.246221
N	0.8349404621752288 0.8322799147623060 0.5654699946305581	-0.246225
N	0.6677200852376940 0.8349404621752288 0.5654699946305581	-0.246222
N	0.8322799147623060 0.6650595378247712 0.5654699946305581	-0.246223
	  	
