#======================================================================

# CRYSTAL DATA

#----------------------------------------------------------------------

data_VESTA_phase_1


_pd_phase_name                         ZrFSIX_13_Cd_i
_cell_length_a                         15.79916
_cell_length_b                         15.77192
_cell_length_c                         8.35781
_cell_angle_alpha                      90.24410
_cell_angle_beta                       89.18403
_cell_angle_gamma                      89.69865
_symmetry_space_group_name_H-M         P 1
_symmetry_Int_Tables_number            1

loop_
_symmetry_equiv_pos_as_xyz
   x, y, z

loop_
   _atom_site_label
   _atom_site_fract_x
   _atom_site_fract_y
   _atom_site_fract_z
   _atom_site_charge
C	0.5399160156304440 0.6941546217771348 0.8743368004381575	0.107611
C	0.5442768805841350 0.7823430788707327 0.8760914310681046	-0.145541
C	0.4627175836180572 0.3094521849335997 0.8865856329442346	0.104802
C	0.4605807848653260 0.2212200918394260 0.8844811807964761	-0.141268
C	0.8092606760849526 0.9731885840825772 0.3779436237127755	0.109234
C	0.7214385687602263 0.9721830134955818 0.3711420703271668	-0.136967
C	0.3079169919929322 0.5407249000211030 0.8721121257676843	0.099920
C	0.2198285890446095 0.5457215770369390 0.8743490499824705	-0.147621
C	0.1949622883005075 0.9734657518403138 0.3587277640302542	0.100375
C	0.2830380490727489 0.9721292731145534 0.3574446661208692	-0.135745
C	0.6931146514238545 0.4625788552812861 0.8977817395957186	0.103551
C	0.7810836336183233 0.4607643156619037 0.8913951409470914	-0.143344
C	0.4560002156034655 0.6938030240935709 0.1051328847469740	0.107437
C	0.4541179869476425 0.7819257742559695 0.1114776596504769	-0.138249
C	0.5391163620241001 0.3107223805587511 0.1229082193140539	0.098647
C	0.5429696845019668 0.2224716908476964 0.1252351989228521	-0.147654
C	0.1901327739796145 0.0206475275796698 0.6229436331596077	0.109759
C	0.2778677599099685 0.0209411459359202 0.6319416457876063	-0.137435
C	0.6919627007650963 0.5433124557463702 0.1312219362070861	0.108884
C	0.7800955430719442 0.5476033405953928 0.1296089363251131	-0.147159
C	0.8059093148047725 0.0264342263237524 0.6380367772421864	0.099567
C	0.7178198972551050 0.0278027363146801 0.6411069473371971	-0.134957
C	0.3073827107481258 0.4586299920021437 0.1026179302872222	0.106005
C	0.2193863939600835 0.4574338745280457 0.1092329951338775	-0.143084
C	0.9668204065796188 0.8067272563816452 0.6190328956128663	0.109487
C	0.9665115103194212 0.7187137503279122 0.6267134254401970	-0.138213
C	0.9840335205668719 0.1908168696943622 0.6422121082495661	0.101503
C	0.9818707247927289 0.2789641323816029 0.6448525856439972	-0.133406
C	0.0196379683255202 0.8043367091651473 0.3576901106626357	0.100303
C	0.0218743727995919 0.7161566288749361 0.3555943071909956	-0.133926
C	0.0301972064995382 0.1886808448882870 0.3765180461798172	0.108863
C	0.0297288840322518 0.2766672623113117 0.3688204413599385	-0.137617
C	0.0047913770851292 0.3228071796186582 0.5054911818513774	0.042597
C	0.0019822678769982 0.4156965516512756 0.5020534154014915	0.256948
C	0.4999973524373689 0.8271458710585734 0.9957952899251453	0.061604
C	0.5010530759845758 0.9207219915055516 0.0011226029243235	0.247279
C	0.9949064639202574 0.6723766114390447 0.4925502398691793	0.038171
C	0.9969430938788607 0.5793220966821753 0.4957339089917294	0.251591
C	0.5020502650673077 0.1768711130870772 0.0053956328588543	0.057930
C	0.5019078542788035 0.0832295303851539 0.0065562838705588	0.249808
C	0.6746051776163660 0.9997247207378872 0.5055724000972118	0.038139
C	0.5816914539078042 0.9977739439907067 0.5047495708898988	0.251190
C	0.1747020602894356 0.5025137293253766 0.9934558317978548	0.058625
C	0.0812864035707205 0.5036474407284838 0.9968941173418393	0.248223
C	0.3254438541902769 0.9961865036539432 0.4965914510489132	0.043225
C	0.4182159609879356 0.9957072751910687 0.5007922215782499	0.254625
C	0.8255290698132748 0.5048368498425402 0.0088857196678825	0.061475
C	0.9190305523028066 0.5048923153493585 0.0048330255443801	0.248582
H	0.5705222972847208 0.6568993143124583 0.7792196501348420	0.102043
H	0.5806904516120963 0.8153701991232017 0.7841483702691751	0.125973
H	0.4344909743963473 0.3464372946401995 0.7905119900106082	0.104035
H	0.4289515955133009 0.1874624845691745 0.7885466279085305	0.122414
H	0.8478368963388859 0.9526135812508049 0.2754942955448914	0.099503
H	0.6902338392797038 0.9504044477486375 0.2632142093023658	0.124265
H	0.3453260848306647 0.5701725331745461 0.7762827479568087	0.111266
H	0.1872564671783173 0.5817040093126519 0.7825800848073817	0.124859
H	0.1597472972886010 0.9548854937003607 0.2524806279827633	0.105362
H	0.3175384908632354 0.9534309118859231 0.2491157369006738	0.116396
H	0.6554768166525606 0.4326911848864449 0.8050911293377847	0.105764
H	0.8146025532368459 0.4277139531123783 0.7946611927272039	0.120755
H	0.4246948085148144 0.6554624434423939 0.1964902580781682	0.104881
H	0.4199583107076931 0.8149973647641440 0.2073355552240880	0.119896
H	0.5668445118427889 0.3485812596855132 0.2188434753459137	0.111633
H	0.5761054152430458 0.1902655944371822 0.2211447094397761	0.124953
H	0.1510352263816652 0.0391550271133301 0.7259953851520419	0.098796
H	0.3083837663861280 0.0393512912624441 0.7427309015649617	0.123517
H	0.6544755253916159 0.5725962518318691 0.2278420093602092	0.104889
H	0.8125435370685807 0.5826447787967227 0.2229240930588352	0.124947
H	0.8416708763979348 0.0471060847237928 0.7422582505281046	0.105344
H	0.6839187718893029 0.0495307834270469 0.7480542102946613	0.120858
H	0.3449257949549557 0.4278898830410807 0.1945714820374924	0.100312
H	0.1860184986991114 0.4241606297902720 0.2048281065440796	0.119772
H	0.9465620135846398 0.8450762209597887 0.7217754168443740	0.101927
H	0.9455436907543551 0.6870575183876736 0.7357372557110846	0.122721
H	0.9657518073891150 0.1546069353998221 0.7483519799010453	0.101101
H	0.9627843894070660 0.3125032256242616 0.7537609676651710	0.120294
H	0.0403160254233364 0.8404788620875903 0.2529104842711040	0.103638
H	0.0442729205802076 0.6826235421863897 0.2489045267515582	0.120255
H	0.0481873403083208 0.1504549539585778 0.2722591772628133	0.100252
H	0.0470525897871037 0.3084545051536637 0.2577529927404753	0.122367
N	0.9577671210511653 0.5397604731754415 0.6193564352442903	-0.135509
N	0.4257285947146617 0.0446551911741785 0.0090680730691671	-0.146677
N	0.5391714877612096 0.0356803826278542 0.6274275561384222	-0.135594
N	0.9581718428359468 0.4285031336086439 0.0022829530143562	-0.148200
N	0.0377468781780865 0.5385470448711506 0.3742288060153015	-0.133118
N	0.5775723990312867 0.0430689971120301 0.0084647176467491	-0.147905
N	0.9584929755872872 0.5806169569454214 0.0025214467131408	-0.147242
N	0.5439884058679878 0.9559288037689645 0.3835893504742365	-0.133063
N	0.0413440296248510 0.4552732926006716 0.3787737248370345	-0.132217
N	0.5771692830065143 0.9592978803265182 0.0014840351103406	-0.145864
N	0.4607628094011073 0.9540949050431631 0.3824823165176812	-0.130210
N	0.0421200026267923 0.5799458297091904 0.9946290877162347	-0.146687
N	0.9593123070627925 0.4563482390810963 0.6213663785667222	-0.132867
N	0.4253695369747937 0.9608779691830845 0.0098990311838540	-0.144598
N	0.0418174590076820 0.4278668682497715 0.0014934178135916	-0.144802
N	0.4559251632706030 0.0353912791455288 0.6244512268305539	-0.134237
N	0.0073704625147158 0.1466612552474618 0.5103624460683788	-0.230604
N	0.4974699160729975 0.6508722508030863 0.9881018623172193	-0.233994
N	0.9930327849194102 0.8486524272735309 0.4872203344331854	-0.231670
N	0.5002540521977781 0.3530650965084315 0.0048812295846402	-0.239732
N	0.8506564959416661 -0.0004814464445873 0.5089286632386213	-0.233134
N	0.3506579558367192 0.4985446127182099 0.9852959171726504	-0.237041
N	0.1495132813598342 0.9971582605972674 0.4891871740046747	-0.232643
N	0.6494330018553630 0.5023038646314810 0.0161242531445138	-0.237028
Cd	0.0001193424584758 0.9976599031170948 0.4984916315607840	0.833215
Cd	0.4999541512497672 0.5019804415761033 0.9993874413497705	0.832552
Zr	-0.0007839791464331 0.9977324942791146 0.9989154625047993	2.458656
Zr	0.4988939496875764 0.5019525035499391 0.4987227749888482	2.477031
F	0.9765308405589475 0.0233933449471558 0.2377637828438438	-0.627034
F	0.5301520540169288 0.4845440931689752 0.7361994236612417	-0.631846
F	0.0216059502156703 0.9716362567893254 0.7599536253358252	-0.627369
F	0.4663253330366485 0.5193007716584613 0.2615702295547855	-0.632932
F	0.0903025729162076 0.0883493328825647 0.9919414805123423	-0.678541
F	0.5869738170367401 0.5958213355285521 0.4791184523308363	-0.692372
F	0.9084300395235504 0.9070160324464409 0.0035623587318352	-0.678589
F	0.4122603285582350 0.4073330788027913 0.5225572797700094	-0.692803
F	0.9115976898628059 0.0862108163898471 0.9309036638063228	-0.658829
F	0.4108015659988437 0.5905215508621851 0.5686892079027756	-0.682481
F	0.0877854222963975 0.9106330284141957 0.0688493675526452	-0.659916
F	0.5887762611498469 0.4163273368301181 0.4241724932346559	-0.682865
	  	
