#======================================================================

# CRYSTAL DATA

#----------------------------------------------------------------------

data_VESTA_phase_1


_pd_phase_name                         ZrFSIX_5_Fe_i
_cell_length_a                         20.07541
_cell_length_b                         20.07541
_cell_length_c                         16.18181
_cell_angle_alpha                      90
_cell_angle_beta                       90
_cell_angle_gamma                      90
_symmetry_space_group_name_H-M         P 1
_symmetry_Int_Tables_number            1

loop_
_symmetry_equiv_pos_as_xyz
   x, y, z

loop_
   _atom_site_label
   _atom_site_fract_x
   _atom_site_fract_y
   _atom_site_fract_z
   _atom_site_charge
F	0.3183500187816865 0.1749527276113041 0.3505613742099911	-0.679898
F	0.1816499692183125 0.3250472723886959 0.3505613742099911	-0.679903
F	0.3250472723886959 0.3183500187816865 0.3505613742099911	-0.679902
F	0.1749527276113041 0.1816499692183125 0.3505613742099911	-0.679900
F	0.6816500052183087 0.6749527516113061 0.1494386257900089	-0.679898
F	0.8183499947816913 0.8250472483886939 0.1494386257900089	-0.679901
F	0.6749527516113061 0.8183499947816913 0.1494386257900089	-0.679900
F	0.8250472483886939 0.6816500052183087 0.1494386257900089	-0.679899
F	0.6816500052183087 0.8250472483886939 0.6494386577900118	-0.679902
F	0.8183499947816913 0.6749527516113061 0.6494386577900118	-0.679897
F	0.6749527516113061 0.6816500052183087 0.6494386577900118	-0.679899
F	0.8250472483886939 0.8183499947816913 0.6494386577900118	-0.679901
F	0.3183500187816864 0.3250472723886959 0.8505613422099882	-0.679901
F	0.1816499692183125 0.1749527276113041 0.8505613422099882	-0.679899
F	0.3250472723886959 0.1816499692183125 0.8505613422099882	-0.679899
F	0.1749527276113041 0.3183500187816865 0.8505613422099882	-0.679901
F	0.2500000000000000 0.2500000000000000 0.4779055115708511	-0.583594
F	0.2500000000000000 0.2500000000000000 0.2231012592271890	-0.583628
F	0.7500000000000000 0.7500000000000000 0.0220945154291477	-0.583591
F	0.7500000000000000 0.7500000000000000 0.2768987247728094	-0.583630
F	0.7500000000000000 0.7500000000000000 0.5220945194291481	-0.583589
F	0.7500000000000000 0.7500000000000000 0.7768987247728094	-0.583631
F	0.2500000000000000 0.2500000000000000 -0.0220945194291480	-0.583589
F	0.2500000000000000 0.2500000000000000 0.7231012752271906	-0.583632
N	0.3591711240745066 0.2467095620739475 0.6013454749558830	-0.210494
N	0.1408288759254934 0.2532904379260522 0.6013454749558830	-0.210513
N	0.2532904379260522 0.3591711240745066 0.6013454749558830	-0.210495
N	0.2467095620739475 0.1408288759254934 0.6013454749558830	-0.210512
N	0.6408288999254952 0.7467095380739456 0.8986545250441170	-0.210511
N	0.8591711000745048 0.7532904619260544 0.8986545250441170	-0.210511
N	0.7467095380739456 0.8591711000745048 0.8986545250441170	-0.210512
N	0.7532904619260544 0.6408288999254952 0.8986545250441170	-0.210510
N	0.6408288999254952 0.7532904619260544 0.3986545560441158	-0.210509
N	0.8591711000745048 0.7467095380739456 0.3986545560441158	-0.210509
N	0.7467095380739456 0.6408288999254952 0.3986545560441158	-0.210508
N	0.7532904619260544 0.8591711000745048 0.3986545560441158	-0.210510
N	0.3591711240745066 0.2532904379260522 0.1013454749558832	-0.210489
N	0.1408288759254934 0.2467095620739475 0.1013454749558832	-0.210508
N	0.2532904379260522 0.1408288759254934 0.1013454749558832	-0.210508
N	0.2467095620739475 0.3591711240745066 0.1013454749558832	-0.210490
C	0.3924024991891518 0.2174057393672243 0.6639651624938966	0.099317
C	0.4615246520539956 0.2166779916522873 0.6684226865034119	-0.177032
C	0.4991715482867737 0.2475046715500482 0.6060937545887993	0.105003
C	0.4639378232974460 0.2776154031990254 0.5410756782207392	-0.177836
C	0.3947602045461382 0.2761197165911705 0.5408283506889595	0.099631
C	0.5724466702826929 0.2483627986863669 0.6086081931529036	0.053243
C	0.6083344412264765 0.1928541478120043 0.6371812235361349	-0.126782
C	0.6775699225719716 0.1934113122346370 0.6384000379903900	-0.126212
C	0.7132736198660751 0.2498690818811928 0.6124168529132873	0.068214
C	0.6773267000511789 0.3056651399957068 0.5847966610759194	-0.120488
C	0.6081094660483496 0.3047031665617435 0.5822704536490164	-0.124854
C	0.1075974768108532 0.2825942846327780 0.6639651624938966	0.099302
C	0.0384752879460066 0.2833220323477144 0.6684226865034119	-0.176966
C	0.0008284307132279 0.2524953284499516 0.6060937545887993	0.104984
C	0.0360622037025526 0.2223845968009747 0.5410756782207392	-0.177830
C	0.1052397594538587 0.2238803074088316 0.5408283506889595	0.099632
C	0.9275532817173102 0.2516371773136309 0.6086081931529036	0.053245
C	0.8916656067735204 0.3071458871879953 0.6371812235361349	-0.126780
C	0.8224300774280284 0.3065886997653570 0.6384000379903900	-0.126210
C	0.7867263801339249 0.2501308941188051 0.6124168529132873	0.068202
C	0.8226733469488214 0.1943348600042931 0.5847966610759194	-0.120483
C	0.8918906299516512 0.1952968684382558 0.5822704536490164	-0.124854
C	0.2825942846327780 0.3924024991891518 0.6639651624938966	0.099320
C	0.2833220323477144 0.4615246520539956 0.6684226865034119	-0.177033
C	0.2524953284499516 0.4991715482867737 0.6060937545887993	0.105001
C	0.2223845968009747 0.4639378232974460 0.5410756782207392	-0.177832
C	0.2238803074088316 0.3947602045461382 0.5408283506889595	0.099632
C	0.2516371773136309 0.5724466702826929 0.6086081931529036	0.053244
C	0.3071458871879953 0.6083344412264765 0.6371812235361349	-0.126784
C	0.3065886997653570 0.6775699225719716 0.6384000379903900	-0.126213
C	0.2501308941188051 0.7132736198660751 0.6124168529132873	0.068212
C	0.1943348600042931 0.6773267000511789 0.5847966610759194	-0.120486
C	0.1952968684382558 0.6081094660483496 0.5822704536490164	-0.124857
C	0.2174057393672243 0.1075974768108532 0.6639651624938966	0.099302
C	0.2166779916522873 0.0384752879460066 0.6684226865034119	-0.176962
C	0.2475046715500482 0.0008284307132279 0.6060937545887993	0.104986
C	0.2776154031990254 0.0360622037025526 0.5410756782207392	-0.177830
C	0.2761197165911705 0.1052397594538587 0.5408283506889595	0.099632
C	0.2483627986863669 0.9275532817173102 0.6086081931529036	0.053246
C	0.1928541478120043 0.8916656067735204 0.6371812235361349	-0.126781
C	0.1934113122346370 0.8224300774280284 0.6384000379903900	-0.126209
C	0.2498690818811928 0.7867263801339249 0.6124168529132873	0.068204
C	0.3056651399957068 0.8226733469488214 0.5847966610759194	-0.120484
C	0.3047031665617435 0.8918906299516512 0.5822704536490164	-0.124854
C	0.6075974768108533 0.7174057873672212 0.8360348375061034	0.099300
C	0.5384752999460074 0.7166780156522822 0.8315773134965881	-0.176964
C	0.5008284517132262 0.7475047195500453 0.8939062454112007	0.104985
C	0.5360622727025550 0.7776153551990207 0.9589243217792608	-0.177833
C	0.6052398194538566 0.7761197405911655 0.9591716493110405	0.099632
C	0.4275533297173073 0.7483628706863656 0.8913918068470964	0.053246
C	0.3916655587735230 0.6928541128120053 0.8628187764638651	-0.126784
C	0.3224300054280227 0.6934112762346409 0.8615999620096100	-0.126208
C	0.2867264281339282 0.7498691058811950 0.8875831470867127	0.068216
C	0.3226732519488174 0.8056651399957070 0.9152033389240806	-0.120481
C	0.3918905579516457 0.8047030955617409 0.9177295463509836	-0.124846
C	0.8924025231891467 0.7825942126327788 0.8360348375061034	0.099303
C	0.9615247000539926 0.7833219843477178 0.8315773134965881	-0.176969
C	0.9991715962867707 0.7524952804499547 0.8939062454112007	0.104987
C	0.9639377752974490 0.7223846448009793 0.9589243217792608	-0.177830
C	0.8947601805461434 0.7238802594088345 0.9591716493110405	0.099633
C	0.0724467062826886 0.7516371293136344 0.8913918068470964	0.053245
C	0.1083344292264760 0.8071458871879947 0.8628187764638651	-0.126786
C	0.1775699705719755 0.8065886757653622 0.8615999620096100	-0.126208
C	0.2132735718660717 0.7501308941188050 0.8875831470867127	0.068206
C	0.1773267240511808 0.6943348600042930 0.9152033389240806	-0.120481
C	0.1081094420483543 0.6952968574382588 0.9177295463509836	-0.124850
C	0.7174057873672212 0.8924025231891467 0.8360348375061034	0.099306
C	0.7166780156522822 0.9615247000539926 0.8315773134965881	-0.176965
C	0.7475047195500453 0.9991715962867707 0.8939062454112007	0.104986
C	0.7776153551990207 0.9639377752974490 0.9589243217792608	-0.177832
C	0.7761197405911655 0.8947601805461434 0.9591716493110405	0.099634
C	0.7483628706863656 0.0724467062826886 0.8913918068470964	0.053246
C	0.6928541128120053 0.1083344292264760 0.8628187764638651	-0.126788
C	0.6934112762346409 0.1775699705719755 0.8615999620096100	-0.126208
C	0.7498691058811950 0.2132735718660717 0.8875831470867127	0.068216
C	0.8056651399957070 0.1773267240511808 0.9152033389240806	-0.120481
C	0.8047030955617409 0.1081094420483543 0.9177295463509836	-0.124850
C	0.7825942126327788 0.6075974768108533 0.8360348375061034	0.099301
C	0.7833219843477178 0.5384752999460074 0.8315773134965881	-0.176966
C	0.7524952804499547 0.5008284517132262 0.8939062454112007	0.104986
C	0.7223846448009793 0.5360622727025550 0.9589243217792608	-0.177828
C	0.7238802594088345 0.6052398194538566 0.9591716493110405	0.099633
C	0.7516371293136344 0.4275533297173073 0.8913918068470964	0.053247
C	0.8071458871879947 0.3916655587735230 0.8628187764638651	-0.126784
C	0.8065886757653622 0.3224300054280227 0.8615999620096100	-0.126208
C	0.7501308941188050 0.2867264281339282 0.8875831470867127	0.068206
C	0.6943348600042930 0.3226732519488174 0.9152033389240806	-0.120481
C	0.6952968574382588 0.3918905579516457 0.9177295463509836	-0.124848
C	0.6075974768108533 0.7825942126327788 0.3360348685061019	0.099302
C	0.5384752999460074 0.7833219843477178 0.3315773134965881	-0.176965
C	0.5008284517132262 0.7524952804499547 0.3939062454112006	0.104985
C	0.5360622727025550 0.7223846448009793 0.4589243527792667	-0.177831
C	0.6052398194538566 0.7238802594088345 0.4591716493110405	0.099632
C	0.4275533297173073 0.7516371293136344 0.3913918068470962	0.053245
C	0.3916655587735230 0.8071458871879947 0.3628187454638658	-0.126781
C	0.3224300054280227 0.8065886757653622 0.3615999930096090	-0.126209
C	0.2867264281339282 0.7501308941188050 0.3875830530867120	0.068214
C	0.3226732519488174 0.6943348600042930 0.4152033699240790	-0.120483
C	0.3918905579516457 0.6952968574382588 0.4177295463509834	-0.124853
C	0.8924025231891467 0.7174057873672212 0.3360348685061019	0.099301
C	0.9615247000539926 0.7166780156522822 0.3315773134965881	-0.176963
C	0.9991715962867707 0.7475047195500453 0.3939062454112006	0.104988
C	0.9639377752974490 0.7776153551990207 0.4589243527792667	-0.177835
C	0.8947601805461434 0.7761197405911655 0.4591716493110405	0.099634
C	0.0724467062826886 0.7483628706863656 0.3913918068470962	0.053245
C	0.1083344292264760 0.6928541128120053 0.3628187454638658	-0.126784
C	0.1775699705719755 0.6934112762346409 0.3615999930096090	-0.126208
C	0.2132735718660717 0.7498691058811950 0.3875830530867120	0.068205
C	0.1773267240511808 0.8056651399957070 0.4152033699240790	-0.120486
C	0.1081094420483543 0.8047030955617409 0.4177295463509834	-0.124853
C	0.7174057873672212 0.6075974768108533 0.3360348685061019	0.099302
C	0.7166780156522822 0.5384752999460074 0.3315773134965881	-0.176961
C	0.7475047195500453 0.5008284517132262 0.3939062454112006	0.104987
C	0.7776153551990207 0.5360622727025550 0.4589243527792667	-0.177831
C	0.7761197405911655 0.6052398194538566 0.4591716493110405	0.099632
C	0.7483628706863656 0.4275533297173073 0.3913918068470962	0.053246
C	0.6928541128120053 0.3916655587735230 0.3628187454638658	-0.126782
C	0.6934112762346409 0.3224300054280227 0.3615999930096090	-0.126208
C	0.7498691058811950 0.2867264281339282 0.3875830530867120	0.068216
C	0.8056651399957070 0.3226732519488174 0.4152033699240790	-0.120483
C	0.8047030955617409 0.3918905579516457 0.4177295463509834	-0.124853
C	0.7825942126327788 0.8924025231891467 0.3360348685061019	0.099304
C	0.7833219843477178 0.9615247000539926 0.3315773134965881	-0.176964
C	0.7524952804499547 0.9991715962867707 0.3939062454112006	0.104986
C	0.7223846448009793 0.9639377752974490 0.4589243527792667	-0.177831
C	0.7238802594088345 0.8947601805461434 0.4591716493110405	0.099636
C	0.7516371293136344 0.0724467062826886 0.3913918068470962	0.053245
C	0.8071458871879947 0.1083344292264760 0.3628187454638658	-0.126786
C	0.8065886757653622 0.1775699705719755 0.3615999930096090	-0.126209
C	0.7501308941188050 0.2132735718660717 0.3875830530867120	0.068202
C	0.6943348600042930 0.1773267240511808 0.4152033699240790	-0.120485
C	0.6952968574382588 0.1081094420483543 0.4177295463509834	-0.124856
C	0.3924024991891518 0.2825942846327780 0.1639651474938994	0.099319
C	0.4615246520539956 0.2833220323477144 0.1684226555034130	-0.177036
C	0.4991715482867737 0.2524953284499516 0.1060937545887996	0.105002
C	0.4639378232974460 0.2223845968009747 0.0410756432207401	-0.177820
C	0.3947602045461382 0.2238803074088316 0.0408283426889588	0.099628
C	0.5724466702826929 0.2516371773136309 0.1086081851529030	0.053245
C	0.6083344412264765 0.3071458871879953 0.1371812235361350	-0.126787
C	0.6775699225719716 0.3065886997653570 0.1383999909903898	-0.126207
C	0.7132736198660751 0.2501308941188051 0.1124169239132897	0.068218
C	0.6773267000511789 0.1943348600042931 0.0847966450759186	-0.120481
C	0.6081094660483496 0.1952968684382558 0.0822704686490142	-0.124849
C	0.1075974768108533 0.2174057393672243 0.1639651474938994	0.099300
C	0.0384752879460066 0.2166779916522873 0.1684226555034130	-0.176963
C	0.0008284307132279 0.2475046715500482 0.1060937545887996	0.104985
C	0.0360622037025526 0.2776154031990254 0.0410756432207401	-0.177822
C	0.1052397594538587 0.2761197165911705 0.0408283426889588	0.099631
C	0.9275532817173102 0.2483627986863669 0.1086081851529030	0.053248
C	0.8916656067735204 0.1928541478120043 0.1371812235361350	-0.126786
C	0.8224300774280284 0.1934113122346370 0.1383999909903898	-0.126204
C	0.7867263801339249 0.2498690818811928 0.1124169239132897	0.068205
C	0.8226733469488214 0.3056651399957068 0.0847966450759186	-0.120480
C	0.8918906299516512 0.3047031665617435 0.0822704686490142	-0.124845
C	0.2825942846327780 0.1075974768108532 0.1639651474938994	0.099301
C	0.2833220323477144 0.0384752879460066 0.1684226555034130	-0.176965
C	0.2524953284499516 0.0008284307132279 0.1060937545887996	0.104986
C	0.2223845968009747 0.0360622037025526 0.0410756432207401	-0.177816
C	0.2238803074088316 0.1052397594538587 0.0408283426889588	0.099631
C	0.2516371773136309 0.9275532817173102 0.1086081851529030	0.053248
C	0.3071458871879953 0.8916656067735204 0.1371812235361350	-0.126786
C	0.3065886997653570 0.8224300774280284 0.1383999909903898	-0.126206
C	0.2501308941188051 0.7867263801339249 0.1124169239132897	0.068217
C	0.1943348600042931 0.8226733469488214 0.0847966450759186	-0.120480
C	0.1952968684382558 0.8918906299516512 0.0822704686490142	-0.124847
C	0.2174057393672243 0.3924024991891518 0.1639651474938994	0.099322
C	0.2166779916522873 0.4615246520539956 0.1684226555034130	-0.177031
C	0.2475046715500482 0.4991715482867737 0.1060937545887996	0.105001
C	0.2776154031990254 0.4639378232974460 0.0410756432207401	-0.177822
C	0.2761197165911705 0.3947602045461382 0.0408283426889588	0.099629
C	0.2483627986863669 0.5724466702826929 0.1086081851529030	0.053246
C	0.1928541478120043 0.6083344412264765 0.1371812235361350	-0.126789
C	0.1934113122346370 0.6775699225719716 0.1383999909903898	-0.126204
C	0.2498690818811928 0.7132736198660751 0.1124169239132897	0.068205
C	0.3056651399957068 0.6773267000511789 0.0847966450759186	-0.120479
C	0.3047031665617435 0.6081094660483496 0.0822704686490142	-0.124849
H	0.3624673072292390 0.1947840429260728 0.7128606108325852	0.097326
H	0.4856780510889180 0.1935893105485657 0.7215726005593737	0.118025
H	0.4902757582829279 0.3009773185849745 0.4897424512348650	0.116994
H	0.3666103853138665 0.2985192828203829 0.4901588164548839	0.097041
H	0.5813920020197860 0.1484781812642860 0.6570850103548360	0.099034
H	0.7049101741705192 0.1500859600543639 0.6608804608972082	0.102177
H	0.7043371723642176 0.3493588711965635 0.5627967718212029	0.102322
H	0.5810727226339145 0.3484515239480274 0.5605881090703790	0.102982
H	0.1375326567707579 0.3052159810739291 0.7128606108325852	0.097311
H	0.0143219549110755 0.3064107134514359 0.7215726005593737	0.118017
H	0.0097242307170750 0.1990226934150267 0.4897424512348650	0.116991
H	0.1333896386861354 0.2014807051796160 0.4901588164548839	0.097041
H	0.9186080449802143 0.3515218187357136 0.6570850103548360	0.099034
H	0.7950898258294808 0.3499140279456351 0.6608804608972082	0.102180
H	0.7956628276357824 0.1506411408034375 0.5627967718212029	0.102330
H	0.9189272773660855 0.1515484640519786 0.5605881090703790	0.102985
H	0.3052159810739291 0.3624673072292390 0.7128606108325852	0.097325
H	0.3064107134514359 0.4856780510889180 0.7215726005593737	0.118029
H	0.1990226934150267 0.4902757582829279 0.4897424512348650	0.116992
H	0.2014807051796160 0.3666103853138665 0.4901588164548839	0.097041
H	0.3515218187357136 0.5813920020197860 0.6570850103548360	0.099037
H	0.3499140279456351 0.7049101741705192 0.6608804608972082	0.102176
H	0.1506411408034375 0.7043371723642176 0.5627967718212029	0.102324
H	0.1515484640519786 0.5810727226339145 0.5605881090703790	0.102990
H	0.1947840429260728 0.1375326567707579 0.7128606108325852	0.097311
H	0.1935893105485657 0.0143219549110755 0.7215726005593737	0.118015
H	0.3009773185849745 0.0097242307170750 0.4897424512348650	0.116992
H	0.2985192828203829 0.1333896386861354 0.4901588164548839	0.097041
H	0.1484781812642860 0.9186080449802143 0.6570850103548360	0.099039
H	0.1500859600543639 0.7950898258294808 0.6608804608972082	0.102181
H	0.3493588711965635 0.7956628276357824 0.5627967718212029	0.102328
H	0.3484515239480274 0.9189272773660855 0.5605881090703790	0.102987
H	0.6375326447707573 0.6947840429260727 0.7871393891674148	0.097312
H	0.5143219009110779 0.6935892865485638 0.7784273994406263	0.118022
H	0.5097242417170720 0.8009773185849746 0.0102575337651303	0.116992
H	0.6333896146861332 0.7985192588203810 0.0098412115451184	0.097040
H	0.4186079979802139 0.6484781812642861 0.8429149896451640	0.099048
H	0.2950898498294831 0.6500859720543649 0.8391195391027918	0.102180
H	0.2956628276357819 0.8493588711965637 0.9372032281787971	0.102323
H	0.4189273253660826 0.8484515479480224 0.9394118909296210	0.102986
H	0.8624674032292395 0.8052160050739313 0.7871393891674148	0.097312
H	0.9856780030889213 0.8064107134514362 0.7784273994406263	0.118023
H	0.9902757102829312 0.6990226814150254 0.0102575337651303	0.116993
H	0.8666102893138660 0.7014807411796190 0.0098412115451184	0.097043
H	0.0813920020197860 0.8515218187357139 0.8429149896451640	0.099046
H	0.2049101501705170 0.8499140279456351 0.8391195391027918	0.102182
H	0.2043371723642180 0.6506411768034331 0.9372032281787971	0.102328
H	0.0810727166339137 0.6515484520519776 0.9394118909296210	0.102984
H	0.6947840429260727 0.8624674032292395 0.7871393891674148	0.097312
H	0.6935892865485638 0.9856780030889213 0.7784273994406263	0.118023
H	0.8009773185849746 0.9902757102829312 0.0102575337651303	0.116994
H	0.7985192588203810 0.8666102893138660 0.0098412115451184	0.097043
H	0.6484781812642861 0.0813920020197860 0.8429149896451640	0.099052
H	0.6500859720543649 0.2049101501705170 0.8391195391027918	0.102179
H	0.8493588711965637 0.2043371723642180 0.9372032281787971	0.102322
H	0.8484515479480224 0.0810727166339137 0.9394118909296210	0.102989
H	0.8052160050739313 0.6375326447707573 0.7871393891674148	0.097312
H	0.8064107134514362 0.5143219009110779 0.7784273994406263	0.118023
H	0.6990226814150254 0.5097242417170720 0.0102575337651303	0.116990
H	0.7014807411796190 0.6333896146861332 0.0098412115451184	0.097041
H	0.8515218187357139 0.4186079979802139 0.8429149896451640	0.099049
H	0.8499140279456351 0.2950898498294831 0.8391195391027918	0.102183
H	0.6506411768034331 0.2956628276357819 0.9372032281787971	0.102329
H	0.6515484520519776 0.4189273253660826 0.9394118909296210	0.102990
H	0.6375326447707573 0.8052160050739313 0.2871394211674103	0.097311
H	0.5143219009110779 0.8064107134514362 0.2784274304406252	0.118014
H	0.5097242417170720 0.6990226814150254 0.5102575177651355	0.116995
H	0.6333896146861332 0.7014807411796190 0.5098411835451159	0.097041
H	0.4186079979802139 0.8515218187357139 0.3429149586451643	0.099042
H	0.2950898498294831 0.8499140279456351 0.3391195071027889	0.102178
H	0.2956628276357819 0.6506411768034331 0.4372032591787962	0.102327
H	0.4189273253660827 0.6515484520519776 0.4394119529296192	0.102992
H	0.8624674032292395 0.6947840429260727 0.2871394211674103	0.097312
H	0.9856780030889213 0.6935892865485638 0.2784274304406252	0.118011
H	0.9902757102829312 0.8009773185849746 0.5102575177651355	0.116997
H	0.8666102893138660 0.7985192588203810 0.5098411835451159	0.097041
H	0.0813920020197860 0.6484781812642861 0.3429149586451643	0.099041
H	0.2049101501705170 0.6500859720543649 0.3391195071027889	0.102182
H	0.2043371723642180 0.8493588711965637 0.4372032591787962	0.102326
H	0.0810727166339137 0.8484515479480224 0.4394119529296192	0.102989
H	0.6947840429260727 0.6375326447707573 0.2871394211674103	0.097311
H	0.6935892865485638 0.5143219009110779 0.2784274304406252	0.118012
H	0.8009773185849746 0.5097242417170720 0.5102575177651355	0.116996
H	0.7985192588203810 0.6333896146861332 0.5098411835451159	0.097041
H	0.6484781812642861 0.4186079979802139 0.3429149586451643	0.099047
H	0.6500859720543649 0.2950898498294831 0.3391195071027889	0.102179
H	0.8493588711965637 0.2956628276357819 0.4372032591787962	0.102324
H	0.8484515479480224 0.4189273253660826 0.4394119529296192	0.102993
H	0.8052160050739313 0.8624674032292395 0.2871394211674103	0.097312
H	0.8064107134514362 0.9856780030889213 0.2784274304406252	0.118015
H	0.6990226814150254 0.9902757102829312 0.5102575177651355	0.116996
H	0.7014807411796190 0.8666102893138660 0.5098411835451159	0.097041
H	0.8515218187357139 0.0813920020197860 0.3429149586451643	0.099044
H	0.8499140279456351 0.2049101501705170 0.3391195071027889	0.102181
H	0.6506411768034331 0.2043371723642180 0.4372032591787962	0.102329
H	0.6515484520519776 0.0810727166339137 0.4394119529296192	0.102996
H	0.3624673072292390 0.3052159810739291 0.2128606108325853	0.097325
H	0.4856780510889180 0.3064107134514359 0.2215726155593790	0.118031
H	0.4902757582829279 0.1990226934150267 0.9897425132348706	0.116984
H	0.3666103853138665 0.2014807051796160 0.9901587854548851	0.097043
H	0.5813920020197860 0.3515218187357136 0.1570850253548343	0.099054
H	0.7049101741705192 0.3499140279456351 0.1608805078972090	0.102179
H	0.7043371723642176 0.1506411408034375 0.0627967328212032	0.102324
H	0.5810727226339145 0.1515484640519786 0.0605880700703792	0.102991
H	0.1375326567707579 0.1947840429260728 0.2128606108325853	0.097311
H	0.0143219549110755 0.1935893105485657 0.2215726155593790	0.118019
H	0.0097242307170750 0.3009773185849745 0.9897425132348706	0.116983
H	0.1333896386861354 0.2985192828203829 0.9901587854548851	0.097040
H	0.9186080449802143 0.1484781812642860 0.1570850253548343	0.099055
H	0.7950898258294808 0.1500859600543639 0.1608805078972090	0.102185
H	0.7956628276357824 0.3493588711965635 0.0627967328212032	0.102327
H	0.9189272773660855 0.3484515239480274 0.0605880700703792	0.102992
H	0.3052159810739291 0.1375326567707579 0.2128606108325853	0.097312
H	0.3064107134514359 0.0143219549110755 0.2215726155593790	0.118020
H	0.1990226934150267 0.0097242307170750 0.9897425132348706	0.116981
H	0.2014807051796160 0.1333896386861354 0.9901587854548851	0.097040
H	0.3515218187357136 0.9186080449802143 0.1570850253548343	0.099057
H	0.3499140279456351 0.7950898258294808 0.1608805078972090	0.102180
H	0.1506411408034375 0.7956628276357824 0.0627967328212032	0.102325
H	0.1515484640519786 0.9189272773660855 0.0605880700703792	0.102997
H	0.1947840429260728 0.3624673072292390 0.2128606108325853	0.097324
H	0.1935893105485657 0.4856780510889180 0.2215726155593790	0.118031
H	0.3009773185849745 0.4902757582829279 0.9897425132348706	0.116986
H	0.2985192828203829 0.3666103853138665 0.9901587854548851	0.097042
H	0.1484781812642860 0.5813920020197860 0.1570850253548343	0.099060
H	0.1500859600543639 0.7049101741705192 0.1608805078972090	0.102184
H	0.3493588711965635 0.7043371723642176 0.0627967328212032	0.102326
H	0.3484515239480274 0.5810727226339145 0.0605880700703792	0.102995
Fe	0.2500000000000000 0.2500000000000000 0.6003810729344268	0.627959
Fe	0.7500000000000000 0.7500000000000000 0.8996189270655732	0.627937
Fe	0.7500000000000000 0.7500000000000000 0.3996188650655752	0.627933
Fe	0.2500000000000000 0.2500000000000000 0.1003810959344252	0.627933
Zr	0.2500000000000000 0.2500000000000000 0.3505089419698388	2.468268
Zr	0.7500000000000000 0.7500000000000000 0.1494910730301588	2.468273
Zr	0.7500000000000000 0.7500000000000000 0.6494911510301588	2.468273
Zr	0.2500000000000000 0.2500000000000000 0.8505088489698412	2.468274
	  	
