#======================================================================

# CRYSTAL DATA

#----------------------------------------------------------------------

data_VESTA_phase_1


_pd_phase_name                         ZrFSIX_4_Cu_i
_cell_length_a                         23.43528
_cell_length_b                         20.34029
_cell_length_c                         9.69267
_cell_angle_alpha                      90
_cell_angle_beta                       90
_cell_angle_gamma                      90
_symmetry_space_group_name_H-M         P 1
_symmetry_Int_Tables_number            1

loop_
_symmetry_equiv_pos_as_xyz
   x, y, z

loop_
   _atom_site_label
   _atom_site_fract_x
   _atom_site_fract_y
   _atom_site_fract_z
   _atom_site_charge
C	0.4176014610690168 0.5967553538063080 0.6313646084335892	0.101874
C	0.3737990944222110 0.5510029400205499 0.6293363843174925	-0.161302
C	0.2777758452816184 0.4491006987516368 0.6287160338457675	-0.114777
C	0.2314936744000421 0.4065356329720099 0.6274887862821737	-0.111149
C	0.1300106992292278 0.3194343972789572 0.6265637798562400	-0.162610
C	0.0833060786071291 0.2775623015278817 0.6299267925381875	0.095061
C	0.9176015440690131 0.0967553648063124 0.6313646084335892	0.101855
C	0.8737990524222152 0.0510028820205529 0.6293363843174926	-0.161335
C	0.7777758662816237 0.9491007457516371 0.6287160338457675	-0.114777
C	0.7314936544000402 0.9065356789720064 0.6274887862821737	-0.111149
C	0.6300106992292279 0.8194344442789570 0.6265637798562400	-0.162610
C	0.5833060636071247 0.7775623945278786 0.6299267925381875	0.095061
C	0.5823985389309831 0.4032446001936881 0.1313646164335903	0.101875
C	0.6262009475777848 0.4489971059794530 0.1293363993174902	-0.161302
C	0.7222241337183763 0.5508992542483629 0.1287160418457680	-0.114776
C	0.7685063455999598 0.5934643670279903 0.1274887942821744	-0.111149
C	0.8699893007707721 0.6805656027210434 0.1265637868562444	-0.162609
C	0.9166939363928753 0.7224376524721218 0.1299268075381846	0.095061
C	0.0823985499309878 0.9032446931936924 0.1313646164335903	0.101874
C	0.1262009055777890 0.9489970139794534 0.1293363993174902	-0.161303
C	0.2222241757183798 0.0508993012483632 0.1287160418457680	-0.114776
C	0.2685063045999596 0.0934643440279919 0.1274887942821744	-0.111150
C	0.3699893427707757 0.1805656137210404 0.1265637868562444	-0.162609
C	0.4166939363928756 0.2224377224721203 0.1299268075381846	0.095061
C	0.5823985389309831 0.5967553538063080 0.8686353605664118	0.101874
C	0.6262009475777848 0.5510029400205499 0.8706635846825085	-0.161302
C	0.7222241337183763 0.4491006987516368 0.8712839971542315	-0.114777
C	0.7685063455999598 0.4065356329720098 0.8725112447178253	-0.111149
C	0.8699893007707721 0.3194343972789572 0.8734362511437590	-0.162611
C	0.9166939363928753 0.2775623015278817 0.8700732384618115	0.095061
C	0.0823985499309878 0.0967553648063124 0.8686353605664118	0.101874
C	0.1262009055777890 0.0510028820205529 0.8706635846825085	-0.161302
C	0.2222241757183798 0.9491007457516371 0.8712839971542315	-0.114777
C	0.2685063045999596 0.9065356789720064 0.8725112447178253	-0.111149
C	0.3699893427707757 0.8194344442789570 0.8734362511437590	-0.162611
C	0.4166939363928756 0.7775623945278786 0.8700732384618115	0.095061
C	0.4176014610690168 0.4032446001936881 0.3686353915664103	0.101874
C	0.3737990944222110 0.4489971059794531 0.3706635846825087	-0.161302
C	0.2777758452816184 0.5508992542483629 0.3712839661542330	-0.114776
C	0.2314936744000421 0.5934643670279903 0.3725111827178275	-0.111149
C	0.1300106992292278 0.6805656027210434 0.3734361891437535	-0.162611
C	0.0833060786071291 0.7224376524721218 0.3700731764618143	0.095061
C	0.9176015440690131 0.9032446931936924 0.3686353915664103	0.101855
C	0.8737990524222152 0.9489970139794534 0.3706635846825087	-0.161336
C	0.7777758662816237 0.0508993012483632 0.3712839661542330	-0.114776
C	0.7314936544000402 0.0934643440279919 0.3725111827178275	-0.111150
C	0.6300106992292279 0.1805656137210404 0.3734361891437535	-0.162610
C	0.5833060636071247 0.2224377224721203 0.3700731764618143	0.095061
C	0.5823985389309831 0.4032446001936881 0.3686353915664103	0.101875
C	0.6262009475777848 0.4489971059794531 0.3706635846825087	-0.161302
C	0.7222241337183763 0.5508992542483629 0.3712839661542330	-0.114776
C	0.7685063455999598 0.5934643670279903 0.3725111827178275	-0.111149
C	0.8699893007707721 0.6805656027210434 0.3734361891437535	-0.162611
C	0.9166939363928753 0.7224376524721218 0.3700731764618143	0.095060
C	0.0823985499309878 0.9032446931936924 0.3686353915664103	0.101875
C	0.1262009055777890 0.9489970139794534 0.3706635846825087	-0.161303
C	0.2222241757183798 0.0508993012483632 0.3712839661542330	-0.114777
C	0.2685063045999596 0.0934643440279919 0.3725111827178275	-0.111150
C	0.3699893427707757 0.1805656137210404 0.3734361891437535	-0.162611
C	0.4166939363928756 0.2224377224721203 0.3700731764618143	0.095060
C	0.4176014610690168 0.5967553538063080 0.8686353605664118	0.101874
C	0.3737990944222110 0.5510029400205499 0.8706635846825085	-0.161302
C	0.2777758452816184 0.4491006987516368 0.8712839971542315	-0.114777
C	0.2314936744000421 0.4065356329720098 0.8725112447178253	-0.111149
C	0.1300106992292278 0.3194343972789572 0.8734362511437590	-0.162612
C	0.0833060786071291 0.2775623015278817 0.8700732384618115	0.095061
C	0.9176015440690131 0.0967553648063124 0.8686353605664118	0.101855
C	0.8737990524222152 0.0510028820205529 0.8706635846825085	-0.161335
C	0.7777758662816237 0.9491007457516371 0.8712839971542315	-0.114777
C	0.7314936544000402 0.9065356789720064 0.8725112447178253	-0.111149
C	0.6300106992292279 0.8194344442789570 0.8734362511437590	-0.162612
C	0.5833060636071247 0.7775623945278786 0.8700732384618115	0.095061
C	0.4176014610690168 0.4032446001936881 0.1313646164335903	0.101875
C	0.3737990944222110 0.4489971059794531 0.1293363993174903	-0.161302
C	0.2777758452816184 0.5508992542483629 0.1287160418457680	-0.114776
C	0.2314936744000421 0.5934643670279903 0.1274887942821744	-0.111149
C	0.1300106992292278 0.6805656027210434 0.1265637868562444	-0.162612
C	0.0833060786071291 0.7224376524721218 0.1299268075381846	0.095060
C	0.9176015440690131 0.9032446931936924 0.1313646164335903	0.101855
C	0.8737990524222152 0.9489970139794534 0.1293363993174902	-0.161336
C	0.7777758662816237 0.0508993012483632 0.1287160418457680	-0.114776
C	0.7314936544000402 0.0934643440279919 0.1274887942821744	-0.111150
C	0.6300106992292279 0.1805656137210404 0.1265637868562444	-0.162612
C	0.5833060636071247 0.2224377224721203 0.1299268075381846	0.095061
C	0.5823985389309831 0.5967553538063080 0.6313646084335893	0.101875
C	0.6262009475777848 0.5510029400205501 0.6293363843174925	-0.161302
C	0.7222241337183763 0.4491006987516368 0.6287160338457675	-0.114777
C	0.7685063455999598 0.4065356329720098 0.6274887862821737	-0.111149
C	0.8699893007707721 0.3194343972789572 0.6265637798562400	-0.162612
C	0.9166939363928753 0.2775623015278817 0.6299267925381875	0.095061
C	0.0823985499309878 0.0967553648063124 0.6313646084335892	0.101875
C	0.1262009055777890 0.0510028820205529 0.6293363843174926	-0.161302
C	0.2222241757183798 0.9491007457516371 0.6287160338457675	-0.114777
C	0.2685063045999596 0.9065356789720064 0.6274887862821737	-0.111149
C	0.3699893427707757 0.8194344442789570 0.6265637798562400	-0.162612
C	0.4166939363928756 0.7775623945278786 0.6299267925381875	0.095061
C	0.3496521870603619 0.5243404751244487 0.7500000149999977	0.123656
C	0.3024121815260631 0.4746085938069899 0.7500000149999977	0.077631
C	0.2057763791631559 0.3848172326088956 0.7500000149999977	0.063127
C	0.1553312238444894 0.3412569153714599 0.7500000149999977	0.105234
C	0.8496521450603655 0.0243404581244511 0.7500000149999977	0.123664
C	0.8024122435260612 0.9746085468069896 0.7500000149999977	0.077631
C	0.7057763791631555 0.8848172556088937 0.7500000149999977	0.063127
C	0.6553312238444894 0.8412568463714580 0.7500000149999977	0.105234
C	0.6503478129396382 0.4756595708755479 0.2500000000000000	0.123656
C	0.6975877564739388 0.5253914061930101 0.2500000000000000	0.077630
C	0.7942236208368445 0.6151827913911067 0.2500000000000000	0.063127
C	0.8446688171555176 0.6587430616285415 0.2500000000000000	0.105234
C	0.1503478239396357 0.9756596178755484 0.2500000000000000	0.123656
C	0.1975878394739351 0.0253914091930068 0.2500000000000000	0.077630
C	0.2942236208368441 0.1151827443911062 0.2500000000000000	0.063127
C	0.3446687761555108 0.1587430956285444 0.2500000000000000	0.105234
C	0.6503478129396382 0.5243404751244486 0.7500000149999977	0.123656
C	0.6975877564739388 0.4746085938069899 0.7500000149999977	0.077631
C	0.7942236208368445 0.3848172326088956 0.7500000149999977	0.063127
C	0.8446688171555176 0.3412569153714599 0.7500000149999977	0.105234
C	0.1503478239396357 0.0243404581244511 0.7500000149999977	0.123656
C	0.1975878394739351 0.9746085468069896 0.7500000149999977	0.077631
C	0.2942236208368441 0.8848172556088937 0.7500000149999977	0.063127
C	0.3446687761555108 0.8412568463714580 0.7500000149999977	0.105234
C	0.3496521870603619 0.4756595708755479 0.2500000000000000	0.123656
C	0.3024121815260631 0.5253914061930101 0.2500000000000000	0.077630
C	0.2057763791631559 0.6151827913911067 0.2500000000000000	0.063127
C	0.1553312238444894 0.6587430616285415 0.2500000000000000	0.105234
C	0.8496521450603655 0.9756596178755483 0.2500000000000000	0.123664
C	0.8024122435260612 0.0253914091930068 0.2500000000000000	0.077631
C	0.7057763791631555 0.1151827443911062 0.2500000000000000	0.063127
C	0.6553312238444894 0.1587430956285444 0.2500000000000000	0.105234
H	0.4357219528868863 0.6159308948918437 0.5357237802890987	0.104773
H	0.3603083979814878 0.5381983991464210 0.5268877872362964	0.105136
H	0.2942943390612267 0.4612307303701051 0.5284478295361458	0.085349
H	0.2157512782610420 0.3904885924184097 0.5272340693599611	0.105061
H	0.1461132759465097 0.3339321144784856 0.5257824018348251	0.123691
H	0.0633669949551594 0.2593167633927759 0.5355260374542226	0.107875
H	0.9357219108868826 0.1159309298918423 0.5357237802890987	0.104772
H	0.8603083569814879 0.0381983351464159 0.5268877872362964	0.105140
H	0.7942943180612284 0.9612307303701054 0.5284478295361458	0.085349
H	0.7157512362610391 0.8904885234184146 0.5272340693599611	0.105061
H	0.6461132659465090 0.8339321144784850 0.5257824018348251	0.123691
H	0.5633670259551586 0.7593167403927775 0.5355260374542226	0.107876
H	0.5642780471131139 0.3840691051081571 0.0357238422890967	0.104773
H	0.6396916020185123 0.4618016478535789 0.0268877872362961	0.105136
H	0.7057056819387716 0.5387692236298909 0.0284478915361438	0.085349
H	0.7842487637389609 0.6095113845815849 0.0272340083599595	0.105061
H	0.8538867340534910 0.6660678395215112 0.0257824018348253	0.123690
H	0.9366329330448415 0.7406832596072225 0.0355260064542237	0.107875
H	0.0642780531131142 0.8840691051081563 0.0357238422890967	0.104773
H	0.1396916430185121 0.9618016478535794 0.0268877872362961	0.105136
H	0.2057056819387716 0.0387692666298910 0.0284478915361438	0.085349
H	0.2842487217389583 0.1095114185815876 0.0272340083599595	0.105061
H	0.3538867340534911 0.1660678625215090 0.0257824018348253	0.123690
H	0.4366329740448415 0.2406832366072245 0.0355260064542237	0.107875
H	0.5642780471131139 0.6159308948918437 -0.0357237992890966	0.104773
H	0.6396916020185123 0.5381983991464210 -0.0268878142363021	0.105135
H	0.7057056819387716 0.4612307303701051 -0.0284478475361402	0.085348
H	0.7842487637389609 0.3904885924184097 -0.0272340623599568	0.105061
H	0.8538867340534910 0.3339321144784856 -0.0257824018348250	0.123691
H	0.9366329330448415 0.2593167633927759 -0.0355260444542269	0.107875
H	0.0642780531131142 0.1159309298918423 -0.0357237992890967	0.104773
H	0.1396916430185121 0.0381983351464159 -0.0268878142363021	0.105135
H	0.2057056819387716 0.9612307303701054 -0.0284478475361402	0.085348
H	0.2842487217389583 0.8904885234184146 -0.0272340623599568	0.105061
H	0.3538867340534911 0.8339321144784850 -0.0257824018348250	0.123691
H	0.4366329740448415 0.7593167403927775 -0.0355260444542269	0.107875
H	0.4357219528868863 0.3840691051081571 0.4642761887109024	0.104773
H	0.3603083979814878 0.4618016478535789 0.4731122437637027	0.105135
H	0.2942943390612267 0.5387692236298908 0.4715521394638552	0.085348
H	0.2157512782610420 0.6095113845815849 0.4727658996400401	0.105061
H	0.1461132759465097 0.6660678395215112 0.4742175671651757	0.123690
H	0.0633669949551594 0.7406832596072225 0.4644739625457774	0.107875
H	0.9357219108868826 0.8840691051081563 0.4642761887109024	0.104772
H	0.8603083569814879 0.9618016478535794 0.4731122437637026	0.105140
H	0.7942943180612284 0.0387692666298909 0.4715521394638552	0.085349
H	0.7157512362610391 0.1095114185815876 0.4727658996400401	0.105061
H	0.6461132659465090 0.1660678625215090 0.4742175671651757	0.123690
H	0.5633670259551586 0.2406832366072245 0.4644739625457774	0.107875
H	0.5642780471131139 0.3840691051081571 0.4642761887109024	0.104772
H	0.6396916020185123 0.4618016478535789 0.4731122437637027	0.105136
H	0.7057056819387716 0.5387692236298908 0.4715521394638552	0.085348
H	0.7842487637389609 0.6095113845815849 0.4727658996400402	0.105061
H	0.8538867340534910 0.6660678395215112 0.4742175671651757	0.123690
H	0.9366329330448415 0.7406832596072225 0.4644739625457773	0.107875
H	0.0642780531131142 0.8840691051081563 0.4642761887109024	0.104773
H	0.1396916430185121 0.9618016478535794 0.4731122437637026	0.105136
H	0.2057056819387716 0.0387692666298909 0.4715521394638552	0.085349
H	0.2842487217389583 0.1095114185815876 0.4727658996400402	0.105061
H	0.3538867340534911 0.1660678625215090 0.4742175671651757	0.123690
H	0.4366329740448415 0.2406832366072245 0.4644739625457773	0.107875
H	0.4357219528868863 0.6159308948918437 -0.0357237992890966	0.104773
H	0.3603083979814878 0.5381983991464210 -0.0268878142363021	0.105136
H	0.2942943390612267 0.4612307303701051 -0.0284478475361402	0.085348
H	0.2157512782610420 0.3904885924184097 -0.0272340623599568	0.105061
H	0.1461132759465097 0.3339321144784856 -0.0257824018348250	0.123690
H	0.0633669949551594 0.2593167633927759 -0.0355260444542269	0.107875
H	0.9357219108868826 0.1159309298918423 -0.0357237992890967	0.104772
H	0.8603083569814879 0.0381983351464159 -0.0268878142363021	0.105140
H	0.7942943180612284 0.9612307303701053 -0.0284478475361402	0.085349
H	0.7157512362610391 0.8904885234184146 -0.0272340623599568	0.105061
H	0.6461132659465090 0.8339321144784850 -0.0257824018348250	0.123691
H	0.5633670259551586 0.7593167403927775 -0.0355260444542269	0.107875
H	0.4357219528868863 0.3840691051081571 0.0357238422890967	0.104773
H	0.3603083979814878 0.4618016478535789 0.0268877872362961	0.105136
H	0.2942943390612267 0.5387692236298909 0.0284478915361438	0.085349
H	0.2157512782610420 0.6095113845815849 0.0272340083599595	0.105061
H	0.1461132759465097 0.6660678395215112 0.0257824018348253	0.123690
H	0.0633669949551594 0.7406832596072225 0.0355260064542237	0.107875
H	0.9357219108868826 0.8840691051081563 0.0357238422890967	0.104772
H	0.8603083569814879 0.9618016478535794 0.0268877872362961	0.105140
H	0.7942943180612284 0.0387692666298909 0.0284478915361438	0.085349
H	0.7157512362610391 0.1095114185815876 0.0272340083599595	0.105061
H	0.6461132659465090 0.1660678625215090 0.0257824018348253	0.123690
H	0.5633670259551586 0.2406832366072245 0.0355260064542237	0.107875
H	0.5642780471131139 0.6159308948918437 0.5357237802890988	0.104773
H	0.6396916020185123 0.5381983991464210 0.5268877872362964	0.105136
H	0.7057056819387716 0.4612307303701051 0.5284478295361458	0.085348
H	0.7842487637389609 0.3904885924184097 0.5272340693599611	0.105061
H	0.8538867340534910 0.3339321144784856 0.5257824018348251	0.123691
H	0.9366329330448415 0.2593167633927759 0.5355260374542226	0.107875
H	0.0642780531131142 0.1159309298918423 0.5357237802890987	0.104773
H	0.1396916430185121 0.0381983351464159 0.5268877872362964	0.105135
H	0.2057056819387716 0.9612307303701054 0.5284478295361458	0.085349
H	0.2842487217389583 0.8904885234184146 0.5272340693599611	0.105061
H	0.3538867340534911 0.8339321144784850 0.5257824018348251	0.123691
H	0.4366329740448415 0.7593167403927775 0.5355260374542226	0.107876
Cu	0.5000000000000000 0.6882232903448575 0.7500000149999977	0.664254
Cu	0.0000000000000000 0.1882233483448550 0.7500000149999977	0.664238
Cu	0.5000000000000000 0.3117766396551437 0.2500000000000000	0.664254
Cu	0.0000000000000000 0.8117767096551425 0.2500000000000000	0.664238
F	0.5000000000000000 0.6844432639332011 0.4680160486715676	-0.667656
F	0.0000000000000000 0.1844432989332001 0.4680160486715676	-0.667655
F	0.5000000000000000 0.3155567130667937 -0.0319839513284322	-0.667656
F	0.0000000000000000 0.8155567360667989 -0.0319839513284322	-0.667656
F	0.5000000000000000 0.6844432639332011 0.0319839373284310	-0.667655
F	0.0000000000000000 0.1844432989332001 0.0319839373284310	-0.667655
F	0.5000000000000000 0.3155567130667937 0.5319839213284298	-0.667655
F	0.0000000000000000 0.8155567360667989 0.5319839213284298	-0.667655
F	0.4376706596503225 0.7524300778711547 0.2500000000000000	-0.701509
F	0.5610546724024374 0.6104396501177046 0.2500000000000000	-0.691149
F	0.9376706596503221 0.2524300778711545 0.2500000000000000	-0.701509
F	0.0610546934024424 0.1104396501177047 0.2500000000000000	-0.691149
F	0.5623292993496780 0.2475698991288473 0.7500000149999977	-0.701508
F	0.4389453275975629 0.3895603498822950 0.7500000149999977	-0.691148
F	0.0623293513496821 0.7475699221288453 0.7500000149999977	-0.701508
F	0.9389453275975626 0.8895603498822954 0.7500000149999977	-0.691149
F	0.5623292993496780 0.7524300778711547 0.2500000000000000	-0.701509
F	0.4389453275975629 0.6104396501177046 0.2500000000000000	-0.691149
F	0.0623293513496821 0.2524300778711545 0.2500000000000000	-0.701509
F	0.9389453275975626 0.1104396501177047 0.2500000000000000	-0.691149
F	0.4376706596503225 0.2475698991288473 0.7500000149999977	-0.701508
F	0.5610546724024374 0.3895603498822950 0.7500000149999977	-0.691148
F	0.9376706596503221 0.7475699221288453 0.7500000149999977	-0.701508
F	0.0610546934024424 0.8895603498822954 0.7500000149999977	-0.691149
N	0.4396376841863465 0.6194454004743454 0.7500000149999977	-0.215479
N	0.5607700177706519 0.7566436312945081 0.7500000149999977	-0.225020
N	0.9396376431863397 0.1194453884743443 0.7500000149999977	-0.215375
N	0.0607699917706497 0.2566436082945029 0.7500000149999977	-0.225018
N	0.5603623158136534 0.3805545995256547 0.2500000000000000	-0.215479
N	0.4392299822293482 0.2433563917054972 0.2500000000000000	-0.225020
N	0.0603623158136535 0.8805545995256546 0.2500000000000000	-0.215478
N	0.9392300232293479 0.7433563687054919 0.2500000000000000	-0.225021
N	0.5603623158136534 0.6194454004743454 0.7500000149999977	-0.215479
N	0.4392299822293482 0.7566436312945081 0.7500000149999977	-0.225020
N	0.0603623158136535 0.1194453884743443 0.7500000149999977	-0.215479
N	0.9392300232293479 0.2566436082945029 0.7500000149999977	-0.225022
N	0.4396376841863465 0.3805545995256547 0.2500000000000000	-0.215479
N	0.5607700177706519 0.2433563917054972 0.2500000000000000	-0.225020
N	0.9396376431863397 0.8805545995256546 0.2500000000000000	-0.215375
N	0.0607699917706497 0.7433563687054919 0.2500000000000000	-0.225017
Zr	0.5000000000000000 0.6823277004530225 0.2500000000000000	2.482154
Zr	0.0000000000000000 0.1823277244530242 0.2500000000000000	2.482155
Zr	0.5000000000000000 0.3176722525469775 0.7500000149999977	2.482154
Zr	0.0000000000000000 0.8176722995469775 0.7500000149999977	2.482155
	  	
