#======================================================================

# CRYSTAL DATA

#----------------------------------------------------------------------

data_VESTA_phase_1


_pd_phase_name                         ZrFSIX_14_Co_i
_cell_length_a                         13.33405
_cell_length_b                         13.31452
_cell_length_c                         8.24511
_cell_angle_alpha                      87.07717
_cell_angle_beta                       86.85017
_cell_angle_gamma                      86.71516
_symmetry_space_group_name_H-M         P 1
_symmetry_Int_Tables_number            1

loop_
_symmetry_equiv_pos_as_xyz
   x, y, z

loop_
   _atom_site_label
   _atom_site_fract_x
   _atom_site_fract_y
   _atom_site_fract_z
   _atom_site_charge
C	0.5680494227972701 0.2717766490876385 0.3595271218981365	-0.173691
C	0.4637073415605244 0.2743101206118989 0.3644872726139861	0.104884
C	0.9338004850157149 0.2902984021965148 0.4097701686949690	-0.162033
C	0.0380854244831945 0.2850691605606214 0.3945579700500414	0.108472
C	0.2701162603803373 0.5678057119544483 0.3606526458049583	-0.173187
C	0.2724636653173494 0.4633634944616138 0.3661183795111883	0.106156
C	0.2974369320157967 0.9332985466965492 0.4048086432013179	-0.159715
C	0.2916651655340752 0.0377307831638312 0.3903629682461860	0.107093
C	0.9324709246921273 0.2305509366221971 0.1385030951864921	-0.173425
C	0.0368008878538225 0.2282111804756101 0.1331804316216832	0.104829
C	0.5670514426714677 0.2048536497489905 0.0931301130492602	-0.160905
C	0.4627322419362155 0.2105409675595089 0.1077372240030186	0.108060
C	0.2062637876427646 0.5658041721587928 0.0925700613283007	-0.162484
C	0.2116385222770091 0.4614040544587287 0.1077553691053384	0.107952
C	0.2274765828151481 0.9318548042033705 0.1411304441164640	-0.172635
C	0.2251263848082960 0.0362960216997083 0.1361011818001830	0.105527
C	0.4318741895246722 0.7334667428707773 0.6381570748289616	-0.174868
C	0.5361948911695312 0.7302042218222183 0.6336564899232705	0.107942
C	0.0664557424619254 0.7221575823984265 0.5823205358346786	-0.162914
C	0.9621930252392549 0.7271192156227149 0.5976067775458924	0.112003
C	0.7342916952652708 0.4320244892647718 0.6383926802250990	-0.174989
C	0.7322387730921214 0.5364312579377997 0.6335443819025597	0.108433
C	0.7095950093145038 0.0667391350421092 0.5878519306065472	-0.160434
C	0.7144249489000608 0.9622834728906736 0.6025242024517964	0.109119
C	0.0679358288594788 0.7638224404630091 0.8636001288758030	-0.174739
C	0.9636184666614610 0.7662665000940364 0.8685745366923441	0.109793
C	0.4330648928283199 0.7846181075737748 0.9146021639071596	-0.160993
C	0.5373732480034223 0.7791450764434223 0.8997494389794328	0.110532
C	0.7848907487918898 0.4335392505413926 0.9147849962766701	-0.161594
C	0.7805288078524577 0.5379621067352107 0.8996667842220482	0.109506
C	0.7686611473467642 0.0678621385874221 0.8592589431250064	-0.174393
C	0.7710681123631470 0.9634426653173177 0.8637583020811149	0.108386
C	0.6212791813586761 0.2368740587719976 0.2197958147316070	0.189821
C	0.8794296888006804 0.2616902434252396 0.2808131582477626	0.191005
C	0.2369079742044133 0.6205136435974564 0.2199040735810120	0.192469
C	0.2638999400420932 0.8788271655938341 0.2794113144800372	0.188255
C	0.3788756814292820 0.7607145623581164 0.7826996392847885	0.192501
C	0.1207550996759382 0.7415211999260725 0.7165894667682908	0.193432
C	0.7606701488938651 0.3791253709634793 0.7829675453302130	0.192699
C	0.7377955137627195 0.1209700108887589 0.7173496701756994	0.190818
H	0.6071157831836684 0.2936279065086587 0.4637359079506806	0.115730
H	0.4205924239852667 0.2999364668911535 0.4722621644387480	0.096332
H	0.8948550105182037 0.3161122505458639 0.5205703593786599	0.126319
H	0.0819197049471125 0.3069706540815462 0.4933266766529926	0.098183
H	0.2907956433423787 0.6076432627845638 0.4649255412491369	0.115375
H	0.2970068672630291 0.4204948509241725 0.4743761244985315	0.096582
H	0.3274516960368206 0.8942565258173567 0.5122291947376603	0.126359
H	0.3169971019504496 0.0816029724662304 0.4867850537029718	0.098403
H	0.8931267446978756 0.2115646941929082 0.0328135111223119	0.114800
H	0.0798111690285918 0.2053195727087904 0.0236360325822101	0.096811
H	0.6062451301374696 0.1759156256611741 0.9846608015394026	0.126657
H	0.4190683101712825 0.1860739117662992 0.0105598293993603	0.098023
H	0.1788714572017088 0.6045122335800899 0.9829719683279975	0.126600
H	0.1883851035389662 0.4173508036041046 0.0099727140012286	0.098784
H	0.2042946518495253 0.8923516636787504 0.0381940611130840	0.116270
H	0.1984624246165955 0.0793780577603923 0.0294174459219654	0.096444
H	0.3925898144677488 0.7181264725464805 0.5304242035381062	0.111859
H	0.5793648689629999 0.7095380282414749 0.5231131684966622	0.094660
H	0.1055144947474694 0.7037054451003445 0.4676591526792300	0.126725
H	0.9184711229080765 0.7125283606278988 0.4946093393275223	0.093507
H	0.7186669314260873 0.3923879862503551 0.5309790172117250	0.112213
H	0.7124111109588352 0.5794665993696144 0.5227885582380996	0.094999
H	0.6840237126963361 0.1060129931370132 0.4775522988765487	0.126616
H	0.6926561679632844 0.9185986871375239 0.5033212964384850	0.096485
H	0.1074164072890620 0.7759453482261575 0.9726314771017325	0.110570
H	0.9205773189093963 0.7826738454728316 0.9811824500538912	0.093384
H	0.3938883183917519 0.8073621874712897 0.0269908711281919	0.126500
H	0.5809580125588164 0.7975642420178811 0.0008917234116955	0.093793
H	0.8067502052043922 0.3945159111997898 0.0274824914023567	0.126340
H	0.7992050859620009 0.5817458708500275 0.0006880598380629	0.095798
H	0.7874028452189449 0.1072664996736451 0.9652050162678857	0.113252
H	0.7943334721460504 0.9201669452008656 0.9724664089125492	0.095327
N	0.7734636529606309 0.2713615087818759 0.3019713620349543	-0.109656
N	0.2741779737569647 0.7727447264137106 0.2993742123705287	-0.112301
N	0.7272886085353510 0.2267793733610100 0.1989214415709002	-0.110909
N	0.2270303256379403 0.7265309350388546 0.1994643349764068	-0.112255
N	0.2266120087967990 0.7327825662353090 0.6942406678670983	-0.105550
N	0.7287288888200543 0.2270481914356535 0.6964782870541644	-0.107360
N	0.2729610225272243 0.7699483923446671 0.8047988481599964	-0.106042
N	0.7692604150512528 0.2731052877440991 0.8041521085981324	-0.108370
N	0.4113216399761714 0.2453089796920393 0.2407422142504488	-0.187559
N	0.0893718644994903 0.2539588942274751 0.2589665966971864	-0.188326
N	0.2447738797416063 0.4104670039504325 0.2418228578367604	-0.187303
N	0.2556056568287094 0.0889210560775438 0.2586704804555928	-0.186502
N	0.5887640630864233 0.7521445569303060 0.7618656725511189	-0.188094
N	0.9108626521663613 0.7487269638875431 0.7382851796807743	-0.189848
N	0.7543433177995881 0.5892281122151884 0.7616307337021218	-0.187469
N	0.7449888602064794 0.9109074492647269 0.7378535595623258	-0.187722
F	0.3608457317475612 0.1356849896227139 0.7509865870195455	-0.671060
F	0.1437025690483015 0.3621022660255192 0.7511900714224609	-0.670668
F	0.3586874043459147 0.3516595308920930 0.7060958771282682	-0.664982
F	0.1442244966824563 0.1467097080347457 0.7933550790676313	-0.665274
F	0.6365548533992947 0.8611765510251799 0.2528994023852086	-0.667992
F	0.8599707547130662 0.6408602615019344 0.2472347609961312	-0.667903
F	0.6446160335057974 0.6448013766113586 0.2855971978406905	-0.665211
F	0.8526347733897917 0.8567623853260039 0.2156384483756460	-0.665881
F	0.2448157420195011 0.2433931964459258 0.4986235336777611	-0.619981
F	0.2576489742685107 0.2548336979977608 0.0021622679749413	-0.619638
F	0.7523584280004576 0.7537722151479119 0.5025451092477999	-0.615223
F	0.7457977517565798 0.7475237521753655 -0.0026017779462562	-0.615810
Zr	0.2520578777196631 0.2486260072043086 0.7503950494389715	2.457159
Zr	0.7483039686884063 0.7510714439868583 0.2501284534927517	2.452233
Co	0.2503245965263867 0.2497537649397317 0.2502108919642601	0.620396
Co	0.7497642008740039 0.7500989101768458 0.7499040506966800	0.618714
	  	
