#======================================================================

# CRYSTAL DATA

#----------------------------------------------------------------------

data_VESTA_phase_1


_pd_phase_name                         ZrFSIX_5_Cd_i
_cell_length_a                         20.35384
_cell_length_b                         20.35384
_cell_length_c                         17.02073
_cell_angle_alpha                      90
_cell_angle_beta                       90
_cell_angle_gamma                      90
_symmetry_space_group_name_H-M         P 1
_symmetry_Int_Tables_number            1

loop_
_symmetry_equiv_pos_as_xyz
   x, y, z

loop_
   _atom_site_label
   _atom_site_fract_x
   _atom_site_fract_y
   _atom_site_fract_z
   _atom_site_charge
F	0.3099594449168657 0.1695287636714368 0.3495178936139048	-0.694726
F	0.1900405430831335 0.3304712363285633 0.3495178936139048	-0.694732
F	0.3304712363285633 0.3099594449168657 0.3495178936139048	-0.694730
F	0.1695287636714368 0.1900405430831335 0.3495178936139048	-0.694728
F	0.6900405790831291 0.6695287876714392 0.1504821063860949	-0.694728
F	0.8099594209168709 0.8304712123285608 0.1504821063860949	-0.694730
F	0.6695287876714392 0.8099594209168709 0.1504821063860949	-0.694730
F	0.8304712123285607 0.6900405790831291 0.1504821063860949	-0.694728
F	0.6900405790831291 0.8304712123285608 0.6504821383860973	-0.694732
F	0.8099594209168709 0.6695287876714392 0.6504821383860973	-0.694727
F	0.6695287876714392 0.6900405790831291 0.6504821383860973	-0.694728
F	0.8304712123285608 0.8099594209168709 0.6504821383860973	-0.694730
F	0.3099594449168657 0.3304712363285633 0.8495178616139027	-0.694731
F	0.1900405430831335 0.1695287636714368 0.8495178616139027	-0.694728
F	0.3304712363285633 0.1900405430831335 0.8495178616139027	-0.694729
F	0.1695287636714368 0.3099594449168657 0.8495178616139027	-0.694730
F	0.2500000000000000 0.2500000000000000 0.4704142187100001	-0.624504
F	0.2500000000000000 0.2500000000000000 0.2293753266801345	-0.624011
F	0.7500000000000000 0.7500000000000000 0.0295858082899988	-0.624505
F	0.7500000000000000 0.7500000000000000 0.2706246573198642	-0.624011
F	0.7500000000000000 0.7500000000000000 0.5295858122899988	-0.624503
F	0.7500000000000000 0.7500000000000000 0.7706246573198637	-0.624012
F	0.2500000000000000 0.2500000000000000 -0.0295858122899991	-0.624503
F	0.2500000000000000 0.2500000000000000 0.7293753426801363	-0.624012
N	0.3651413181044051 0.2465201186984943 0.6015739027614945	-0.248557
N	0.1348586818955950 0.2534798813015058 0.6015739027614945	-0.248557
N	0.2534798813015058 0.3651413181044051 0.6015739027614945	-0.248558
N	0.2465201186984943 0.1348586818955950 0.6015739027614945	-0.248556
N	0.6348587058955970 0.7465200946984927 0.8984260972385055	-0.248557
N	0.8651412941044030 0.7534799053015073 0.8984260972385055	-0.248557
N	0.7465200946984927 0.8651412941044030 0.8984260972385055	-0.248558
N	0.7534799053015073 0.6348587058955970 0.8984260972385055	-0.248556
N	0.6348587058955970 0.7534799053015073 0.3984261282385042	-0.248555
N	0.8651412941044030 0.7465200946984927 0.3984261282385042	-0.248555
N	0.7465200946984927 0.6348587058955970 0.3984261282385042	-0.248554
N	0.7534799053015073 0.8651412941044030 0.3984261282385042	-0.248556
N	0.3651413181044051 0.2534798813015058 0.1015739027614947	-0.248555
N	0.1348586818955950 0.2465201186984943 0.1015739027614947	-0.248555
N	0.2534798813015058 0.1348586818955950 0.1015739027614947	-0.248554
N	0.2465201186984943 0.3651413181044051 0.1015739027614947	-0.248556
C	0.3974805150092945 0.2209263033448939 0.6634074551081118	0.102900
C	0.4656949326965321 0.2201230181677261 0.6674235331276999	-0.174312
C	0.5027496107104031 0.2475225336572902 0.6060298238954123	0.106562
C	0.4680926961819835 0.2743125978647770 0.5422600447312218	-0.178103
C	0.3998263377533383 0.2725348714626282 0.5418845976981306	0.101053
C	0.5751721714126560 0.2483202620495502 0.6080977222475151	0.053466
C	0.6106058526647739 0.1940215834935311 0.6364448017026362	-0.128203
C	0.6789177950928922 0.1945194841100144 0.6369536318684463	-0.124558
C	0.7138746015693017 0.2497885574046617 0.6107091961312119	0.067661
C	0.6784629570848019 0.3044530930808240 0.5834080134129193	-0.121725
C	0.6102144349656652 0.3034644992503081 0.5813778893507787	-0.124987
C	0.1025194609907107 0.2790737206551077 0.6634074551081117	0.102900
C	0.0343050073034701 0.2798770058322761 0.6674235331276999	-0.174314
C	-0.0027496317104014 0.2524774663427096 0.6060298238954123	0.106559
C	0.0319073308180150 0.2256874021352229 0.5422600447312218	-0.178098
C	0.1001736262466586 0.2274651525373740 0.5418845976981306	0.101050
C	0.9248277805873472 0.2516797139504480 0.6080977222475151	0.053466
C	0.8893941953352230 0.3059784515064679 0.6364448017026362	-0.128201
C	0.8210822049071078 0.3054805278899796 0.6369536318684463	-0.124556
C	0.7861253984306983 0.2502114185953364 0.6107091961312119	0.067659
C	0.8215370899151985 0.1955469069191759 0.5834080134129193	-0.121720
C	0.8897856610343357 0.1965355357496917 0.5813778893507787	-0.124987
C	0.2790737206551077 0.3974805150092945 0.6634074551081118	0.102901
C	0.2798770058322760 0.4656949326965321 0.6674235331276999	-0.174315
C	0.2524774663427096 0.5027496107104031 0.6060298238954123	0.106560
C	0.2256874021352229 0.4680926961819835 0.5422600447312218	-0.178100
C	0.2274651525373740 0.3998263377533383 0.5418845976981306	0.101054
C	0.2516797139504480 0.5751721714126560 0.6080977222475151	0.053465
C	0.3059784515064679 0.6106058526647739 0.6364448017026362	-0.128204
C	0.3054805278899796 0.6789177950928922 0.6369536318684463	-0.124558
C	0.2502114185953364 0.7138746015693017 0.6107091961312119	0.067659
C	0.1955469069191759 0.6784629570848019 0.5834080134129193	-0.121723
C	0.1965355357496917 0.6102144349656652 0.5813778893507787	-0.124988
C	0.2209263033448939 0.1025194609907107 0.6634074551081117	0.102900
C	0.2201230181677261 0.0343050073034701 0.6674235331276999	-0.174312
C	0.2475225336572902 -0.0027496317104014 0.6060298238954123	0.106560
C	0.2743125978647770 0.0319073308180150 0.5422600447312218	-0.178100
C	0.2725348714626282 0.1001736262466586 0.5418845976981306	0.101050
C	0.2483202620495502 0.9248277805873472 0.6080977222475151	0.053466
C	0.1940215834935311 0.8893941953352230 0.6364448017026362	-0.128200
C	0.1945194841100144 0.8210822049071078 0.6369536318684463	-0.124556
C	0.2497885574046617 0.7861253984306983 0.6107091961312119	0.067661
C	0.3044530930808240 0.8215370899151985 0.5834080134129193	-0.121721
C	0.3034644992503081 0.8897856610343357 0.5813778893507787	-0.124986
C	0.6025194609907109 0.7209263513448899 0.8365925448918882	0.102898
C	0.5343050193034710 0.7201230421677209 0.8325764668723001	-0.174311
C	0.4972503892895967 0.7475225816572868 0.8939701761045877	0.106559
C	0.5319073998180168 0.7743125498647729 0.9577399552687782	-0.178102
C	0.6001736862466560 0.7725348954626223 0.9581154023018694	0.101050
C	0.4248278285873442 0.7483203340495490 0.8919022777524849	0.053466
C	0.3893941473352261 0.6940215484935318 0.8635551982973639	-0.128201
C	0.3210821329071019 0.6945194481100189 0.8630463681315537	-0.124557
C	0.2861254464307022 0.7497885814046631 0.8892908038687881	0.067660
C	0.3215369949151948 0.8044530930808242 0.9165919865870807	-0.121723
C	0.3897855890343299 0.8034644282503047 0.9186221106492213	-0.124985
C	0.8974805390092891 0.7790736486551101 0.8365925448918882	0.102901
C	0.9656949806965290 0.7798769578322791 0.8325764668723001	-0.174315
C	0.0027496587104003 0.7524774183427132 0.8939701761045877	0.106559
C	0.9680926481819871 0.7256874501352271 0.9577399552687782	-0.178084
C	0.8998263137533440 0.7274651045373777 0.9581154023018694	0.101053
C	0.0751722074126518 0.7516796659504510 0.8919022777524849	0.053465
C	0.1106058406647731 0.8059784515064682 0.8635551982973639	-0.128202
C	0.1789178430928963 0.8054805038899843 0.8630463681315537	-0.124558
C	0.2138745535692978 0.7502114185953369 0.8892908038687881	0.067660
C	0.1784629810848036 0.6955469069191758 0.9165919865870807	-0.121722
C	0.1102144109656701 0.6965355247496949 0.9186221106492213	-0.124990
C	0.7209263513448899 0.8974805390092891 0.8365925448918882	0.102903
C	0.7201230421677209 0.9656949806965290 0.8325764668723001	-0.174312
C	0.7475225816572868 0.0027496587104003 0.8939701761045877	0.106558
C	0.7743125498647729 0.9680926481819871 0.9577399552687782	-0.178087
C	0.7725348954626223 0.8998263137533440 0.9581154023018694	0.101053
C	0.7483203340495490 0.0751722074126518 0.8919022777524849	0.053466
C	0.6940215484935318 0.1106058406647731 0.8635551982973638	-0.128203
C	0.6945194481100189 0.1789178430928963 0.8630463681315537	-0.124556
C	0.7497885814046631 0.2138745535692978 0.8892908038687881	0.067660
C	0.8044530930808242 0.1784629810848036 0.9165919865870807	-0.121722
C	0.8034644282503047 0.1102144109656701 0.9186221106492213	-0.124989
C	0.7790736486551101 0.6025194609907109 0.8365925448918882	0.102898
C	0.7798769578322791 0.5343050193034710 0.8325764668723001	-0.174314
C	0.7524774183427132 0.4972503892895967 0.8939701761045877	0.106560
C	0.7256874501352271 0.5319073998180168 0.9577399552687782	-0.178098
C	0.7274651045373777 0.6001736862466560 0.9581154023018694	0.101052
C	0.7516796659504510 0.4248278285873442 0.8919022777524849	0.053466
C	0.8059784515064682 0.3893941473352261 0.8635551982973639	-0.128200
C	0.8054805038899843 0.3210821329071019 0.8630463681315537	-0.124558
C	0.7502114185953369 0.2861254464307022 0.8892908038687881	0.067660
C	0.6955469069191758 0.3215369949151948 0.9165919865870807	-0.121723
C	0.6965355247496949 0.3897855890343299 0.9186221106492213	-0.124986
C	0.6025194609907109 0.7790736486551101 0.3365925758918863	0.102900
C	0.5343050193034710 0.7798769578322791 0.3325764668722996	-0.174313
C	0.4972503892895967 0.7524774183427132 0.3939701761045883	0.106559
C	0.5319073998180168 0.7256874501352271 0.4577399862687842	-0.178097
C	0.6001736862466560 0.7274651045373777 0.4581154023018694	0.101050
C	0.4248278285873442 0.7516796659504510 0.3919022777524848	0.053466
C	0.3893941473352261 0.8059784515064682 0.3635551672973650	-0.128199
C	0.3210821329071019 0.8054805038899843 0.3630463991315531	-0.124558
C	0.2861254464307022 0.7502114185953369 0.3892907098687876	0.067660
C	0.3215369949151948 0.6955469069191758 0.4165920175870796	-0.121721
C	0.3897855890343299 0.6965355247496949 0.4186221106492213	-0.124986
C	0.8974805390092891 0.7209263513448899 0.3365925758918863	0.102900
C	0.9656949806965290 0.7201230421677209 0.3325764668722996	-0.174311
C	0.0027496587104003 0.7475225816572868 0.3939701761045883	0.106560
C	0.9680926481819871 0.7743125498647729 0.4577399862687842	-0.178088
C	0.8998263137533440 0.7725348954626223 0.4581154023018694	0.101053
C	0.0751722074126518 0.7483203340495490 0.3919022777524848	0.053466
C	0.1106058406647731 0.6940215484935318 0.3635551672973650	-0.128202
C	0.1789178430928963 0.6945194481100189 0.3630463991315531	-0.124559
C	0.2138745535692978 0.7497885814046631 0.3892907098687876	0.067661
C	0.1784629810848036 0.8044530930808242 0.4165920175870796	-0.121725
C	0.1102144109656701 0.8034644282503047 0.4186221106492213	-0.124987
C	0.7209263513448899 0.6025194609907109 0.3365925758918863	0.102900
C	0.7201230421677209 0.5343050193034710 0.3325764668722996	-0.174311
C	0.7475225816572868 0.4972503892895967 0.3939701761045883	0.106561
C	0.7743125498647729 0.5319073998180168 0.4577399862687842	-0.178100
C	0.7725348954626223 0.6001736862466560 0.4581154023018694	0.101050
C	0.7483203340495490 0.4248278285873442 0.3919022777524848	0.053466
C	0.6940215484935318 0.3893941473352261 0.3635551672973650	-0.128199
C	0.6945194481100189 0.3210821329071019 0.3630463991315531	-0.124558
C	0.7497885814046631 0.2861254464307022 0.3892907098687876	0.067663
C	0.8044530930808242 0.3215369949151948 0.4165920175870796	-0.121722
C	0.8034644282503047 0.3897855890343299 0.4186221106492213	-0.124984
C	0.7790736486551101 0.8974805390092891 0.3365925758918863	0.102902
C	0.7798769578322791 0.9656949806965290 0.3325764668722996	-0.174313
C	0.7524774183427132 0.0027496587104003 0.3939701761045883	0.106558
C	0.7256874501352271 0.9680926481819871 0.4577399862687842	-0.178085
C	0.7274651045373777 0.8998263137533440 0.4581154023018694	0.101054
C	0.7516796659504510 0.0751722074126518 0.3919022777524848	0.053465
C	0.8059784515064682 0.1106058406647731 0.3635551672973650	-0.128203
C	0.8054805038899843 0.1789178430928963 0.3630463991315531	-0.124560
C	0.7502114185953369 0.2138745535692978 0.3892907098687876	0.067659
C	0.6955469069191758 0.1784629810848036 0.4165920175870796	-0.121723
C	0.6965355247496949 0.1102144109656701 0.4186221106492213	-0.124988
C	0.3974805150092945 0.2790737206551077 0.1634074401081148	0.102902
C	0.4656949326965321 0.2798770058322760 0.1674235021277011	-0.174315
C	0.5027496107104031 0.2524774663427096 0.1060298238954119	0.106561
C	0.4680926961819835 0.2256874021352229 0.0422600097312225	-0.178099
C	0.3998263377533383 0.2274651525373740 0.0418845896981298	0.101053
C	0.5751721714126560 0.2516797139504480 0.1080977142475146	0.053465
C	0.6106058526647739 0.3059784515064679 0.1364448017026363	-0.128202
C	0.6789177950928922 0.3054805278899796 0.1369535848684458	-0.124559
C	0.7138746015693017 0.2502114185953364 0.1107092671312142	0.067662
C	0.6784629570848019 0.1955469069191759 0.0834079974129182	-0.121723
C	0.6102144349656652 0.1965355357496917 0.0813779043507763	-0.124988
C	0.1025194609907107 0.2209263033448939 0.1634074401081148	0.102899
C	0.0343050073034701 0.2201230181677261 0.1674235021277010	-0.174310
C	-0.0027496317104014 0.2475225336572902 0.1060298238954119	0.106560
C	0.0319073308180150 0.2743125978647770 0.0422600097312225	-0.178102
C	0.1001736262466586 0.2725348714626282 0.0418845896981298	0.101050
C	0.9248277805873472 0.2483202620495502 0.1080977142475146	0.053466
C	0.8893941953352230 0.1940215834935311 0.1364448017026363	-0.128201
C	0.8210822049071078 0.1945194841100144 0.1369535848684458	-0.124558
C	0.7861253984306983 0.2497885574046617 0.1107092671312142	0.067659
C	0.8215370899151985 0.3044530930808240 0.0834079974129182	-0.121723
C	0.8897856610343357 0.3034644992503081 0.0813779043507763	-0.124984
C	0.2790737206551077 0.1025194609907107 0.1634074401081148	0.102899
C	0.2798770058322760 0.0343050073034701 0.1674235021277011	-0.174313
C	0.2524774663427096 -0.0027496317104014 0.1060298238954119	0.106561
C	0.2256874021352229 0.0319073308180150 0.0422600097312225	-0.178098
C	0.2274651525373740 0.1001736262466586 0.0418845896981298	0.101052
C	0.2516797139504480 0.9248277805873472 0.1080977142475146	0.053466
C	0.3059784515064679 0.8893941953352230 0.1364448017026363	-0.128200
C	0.3054805278899796 0.8210822049071078 0.1369535848684458	-0.124559
C	0.2502114185953364 0.7861253984306983 0.1107092671312142	0.067662
C	0.1955469069191759 0.8215370899151985 0.0834079974129182	-0.121723
C	0.1965355357496917 0.8897856610343357 0.0813779043507763	-0.124985
C	0.2209263033448939 0.3974805150092945 0.1634074401081148	0.102903
C	0.2201230181677261 0.4656949326965321 0.1674235021277011	-0.174312
C	0.2475225336572902 0.5027496107104031 0.1060298238954119	0.106560
C	0.2743125978647770 0.4680926961819835 0.0422600097312225	-0.178102
C	0.2725348714626282 0.3998263377533383 0.0418845896981298	0.101052
C	0.2483202620495502 0.5751721714126560 0.1080977142475146	0.053465
C	0.1940215834935311 0.6106058526647739 0.1364448017026363	-0.128203
C	0.1945194841100144 0.6789177950928922 0.1369535848684458	-0.124557
C	0.2497885574046617 0.7138746015693017 0.1107092671312142	0.067659
C	0.3044530930808240 0.6784629570848019 0.0834079974129182	-0.121722
C	0.3034644992503081 0.6102144349656652 0.0813779043507763	-0.124987
H	0.3676622595813440 0.2015642637902972 0.7115590710152817	0.098357
H	0.4896166342119661 0.1997688090990154 0.7193433459579721	0.117650
H	0.4941235093483098 0.2952559295084715 0.4921841182222516	0.117296
H	0.3718261129430222 0.2917725922580189 0.4921253747796097	0.097932
H	0.5840372100976994 0.1506059054163301 0.6567553520463012	0.101258
H	0.7058558424399051 0.1520149921257495 0.6590512019024211	0.102502
H	0.7049496665822187 0.3473758081937295 0.5617008601069950	0.103331
H	0.5833795790880579 0.3462929388684274 0.5599344048408303	0.104593
H	0.1323377044186529 0.2984357602097050 0.7115590710152817	0.098356
H	0.0103833717880272 0.3002312149009863 0.7193433459579721	0.117653
H	0.0058764796516932 0.2047440824915295 0.4921841182222516	0.117293
H	0.1281739110569799 0.2082273957419803 0.4921253747796097	0.097931
H	0.9159628369023010 0.3493940945836698 0.6567553520463012	0.101258
H	0.7941441575600949 0.3479849958742496 0.6590512019024211	0.102501
H	0.7950503334177813 0.1526242038062718 0.5617008601069950	0.103336
H	0.9166204209119421 0.1537070491315786 0.5599344048408303	0.104597
H	0.2984357602097049 0.3676622595813440 0.7115590710152817	0.098357
H	0.3002312149009863 0.4896166342119661 0.7193433459579721	0.117653
H	0.2047440824915295 0.4941235093483098 0.4921841182222516	0.117295
H	0.2082273957419803 0.3718261129430222 0.4921253747796097	0.097932
H	0.3493940945836698 0.5840372100976994 0.6567553520463012	0.101257
H	0.3479849958742496 0.7058558424399051 0.6590512019024211	0.102501
H	0.1526242038062718 0.7049496665822187 0.5617008601069950	0.103334
H	0.1537070491315786 0.5833795790880579 0.5599344048408303	0.104597
H	0.2015642637902972 0.1323377044186529 0.7115590710152817	0.098355
H	0.1997688090990154 0.0103833717880272 0.7193433459579721	0.117650
H	0.2952559295084715 0.0058764796516932 0.4921841182222516	0.117294
H	0.2917725922580189 0.1281739110569799 0.4921253747796097	0.097931
H	0.1506059054163301 0.9159628369023010 0.6567553520463012	0.101259
H	0.1520149921257495 0.7941441575600949 0.6590512019024211	0.102503
H	0.3473758081937296 0.7950503334177813 0.5617008601069950	0.103333
H	0.3462929388684274 0.9166204209119421 0.5599344048408303	0.104593
H	0.6323376924186521 0.7015642637902971 0.7884409289847183	0.098356
H	0.5103833177880299 0.6997687850990133 0.7806566540420279	0.117651
H	0.5058764906516905 0.7952559295084715 0.0078158667777438	0.117294
H	0.6281738870569781 0.7917725682580161 0.0078746532203925	0.097931
H	0.4159627899023004 0.6506059054163306 0.8432446479536988	0.101259
H	0.2941441815600978 0.6520150041257509 0.8409487980975789	0.102503
H	0.2950503334177815 0.8473758081937289 0.9382991398930050	0.103333
H	0.4166204689119390 0.8462929628684221 0.9400655951591697	0.104596
H	0.8676623555813447 0.7984357842097068 0.7884409289847183	0.098356
H	0.9896165862119692 0.8002312149009867 0.7806566540420279	0.117652
H	0.9941234613483126 0.7047440704915285 0.0078158667777438	0.117282
H	0.8718260169430211 0.7082274317419839 0.0078746532203925	0.097933
H	0.0840372100976996 0.8493940945836694 0.8432446479536988	0.101257
H	0.2058558184399027 0.8479849958742491 0.8409487980975789	0.102500
H	0.2049496665822182 0.6526242398062679 0.9382991398930050	0.103334
H	0.0833795730880572 0.6537070371315779 0.9400655951591697	0.104594
H	0.7015642637902971 0.8676623555813447 0.7884409289847183	0.098356
H	0.6997687850990133 0.9896165862119692 0.7806566540420279	0.117651
H	0.7952559295084715 0.9941234613483126 0.0078158667777438	0.117283
H	0.7917725682580161 0.8718260169430211 0.0078746532203925	0.097933
H	0.6506059054163306 0.0840372100976996 0.8432446479536988	0.101259
H	0.6520150041257509 0.2058558184399027 0.8409487980975789	0.102501
H	0.8473758081937290 0.2049496665822182 0.9382991398930050	0.103332
H	0.8462929628684221 0.0833795730880572 0.9400655951591697	0.104593
H	0.7984357842097068 0.6323376924186521 0.7884409289847183	0.098356
H	0.8002312149009867 0.5103833177880299 0.7806566540420279	0.117651
H	0.7047440704915285 0.5058764906516905 0.0078158667777438	0.117293
H	0.7082274317419839 0.6281738870569781 0.0078746532203925	0.097930
H	0.8493940945836694 0.4159627899023004 0.8432446479536988	0.101256
H	0.8479849958742491 0.2941441815600978 0.8409487980975789	0.102502
H	0.6526242398062678 0.2950503334177815 0.9382991398930050	0.103335
H	0.6537070371315779 0.4166204689119390 0.9400655951591697	0.104596
H	0.6323376924186521 0.7984357842097068 0.2884409609847136	0.098355
H	0.5103833177880299 0.8002312149009867 0.2806566850420265	0.117652
H	0.5058764906516905 0.7047440704915285 0.5078158507777498	0.117292
H	0.6281738870569781 0.7082274317419839 0.5078746252203898	0.097931
H	0.4159627899023004 0.8493940945836694 0.3432446169537004	0.101258
H	0.2941441815600978 0.8479849958742491 0.3409487660975762	0.102502
H	0.2950503334177815 0.6526242398062679 0.4382991708930039	0.103336
H	0.4166204689119390 0.6537070371315779 0.4400656571591675	0.104595
H	0.8676623555813447 0.7015642637902971 0.2884409609847136	0.098356
H	0.9896165862119692 0.6997687850990133 0.2806566850420265	0.117648
H	0.9941234613483126 0.7952559295084715 0.5078158507777498	0.117281
H	0.8718260169430211 0.7917725682580161 0.5078746252203898	0.097931
H	0.0840372100976996 0.6506059054163306 0.3432446169537004	0.101257
H	0.2058558184399027 0.6520150041257509 0.3409487660975762	0.102502
H	0.2049496665822182 0.8473758081937290 0.4382991708930039	0.103331
H	0.0833795730880572 0.8462929628684221 0.4400656571591675	0.104591
H	0.7015642637902971 0.6323376924186521 0.2884409609847136	0.098355
H	0.6997687850990133 0.5103833177880299 0.2806566850420265	0.117648
H	0.7952559295084715 0.5058764906516905 0.5078158507777498	0.117293
H	0.7917725682580161 0.6281738870569781 0.5078746252203898	0.097931
H	0.6506059054163306 0.4159627899023004 0.3432446169537004	0.101258
H	0.6520150041257509 0.2941441815600978 0.3409487660975762	0.102503
H	0.8473758081937290 0.2950503334177815 0.4382991708930039	0.103334
H	0.8462929628684221 0.4166204689119390 0.4400656571591675	0.104592
H	0.7984357842097068 0.8676623555813447 0.2884409609847136	0.098356
H	0.8002312149009867 0.9896165862119692 0.2806566850420265	0.117652
H	0.7047440704915285 0.9941234613483126 0.5078158507777498	0.117280
H	0.7082274317419839 0.8718260169430211 0.5078746252203898	0.097931
H	0.8493940945836694 0.0840372100976996 0.3432446169537004	0.101256
H	0.8479849958742491 0.2058558184399027 0.3409487660975762	0.102501
H	0.6526242398062678 0.2049496665822182 0.4382991708930039	0.103334
H	0.6537070371315779 0.0833795730880572 0.4400656571591675	0.104594
H	0.3676622595813440 0.2984357602097049 0.2115590710152822	0.098356
H	0.4896166342119661 0.3002312149009863 0.2193433609579772	0.117651
H	0.4941235093483098 0.2047440824915295 0.9921841802222563	0.117294
H	0.3718261129430222 0.2082273957419803 0.9921253437796111	0.097932
H	0.5840372100976994 0.3493940945836698 0.1567553670462987	0.101256
H	0.7058558424399051 0.3479849958742496 0.1590512489024213	0.102501
H	0.7049496665822187 0.1526242038062718 0.0617008211069955	0.103334
H	0.5833795790880579 0.1537070491315786 0.0599343658408309	0.104593
H	0.1323377044186529 0.2015642637902972 0.2115590710152822	0.098355
H	0.0103833717880272 0.1997688090990154 0.2193433609579772	0.117649
H	0.0058764796516932 0.2952559295084715 0.9921841802222563	0.117292
H	0.1281739110569799 0.2917725922580189 0.9921253437796111	0.097930
H	0.9159628369023010 0.1506059054163301 0.1567553670462987	0.101258
H	0.7941441575600949 0.1520149921257495 0.1590512489024213	0.102503
H	0.7950503334177813 0.3473758081937295 0.0617008211069955	0.103333
H	0.9166204209119421 0.3462929388684274 0.0599343658408309	0.104594
H	0.2984357602097050 0.1323377044186529 0.2115590710152822	0.098355
H	0.3002312149009863 0.0103833717880272 0.2193433609579772	0.117650
H	0.2047440824915295 0.0058764796516932 0.9921841802222563	0.117291
H	0.2082273957419803 0.1281739110569799 0.9921253437796111	0.097930
H	0.3493940945836698 0.9159628369023010 0.1567553670462986	0.101256
H	0.3479849958742496 0.7941441575600949 0.1590512489024213	0.102503
H	0.1526242038062718 0.7950503334177813 0.0617008211069955	0.103335
H	0.1537070491315786 0.9166204209119421 0.0599343658408309	0.104594
H	0.2015642637902972 0.3676622595813440 0.2115590710152822	0.098356
H	0.1997688090990154 0.4896166342119661 0.2193433609579772	0.117650
H	0.2952559295084715 0.4941235093483098 0.9921841802222563	0.117295
H	0.2917725922580189 0.3718261129430222 0.9921253437796111	0.097932
H	0.1506059054163301 0.5840372100976994 0.1567553670462987	0.101259
H	0.1520149921257495 0.7058558424399051 0.1590512489024213	0.102501
H	0.3473758081937295 0.7049496665822187 0.0617008211069955	0.103332
H	0.3462929388684274 0.5833795790880579 0.0599343658408309	0.104592
Cd	0.2500000000000000 0.2500000000000000 0.5998177182123012	0.842492
Cd	0.7500000000000000 0.7500000000000000 0.9001822817876988	0.842492
Cd	0.7500000000000000 0.7500000000000000 0.4001822197877011	0.842489
Cd	0.2500000000000000 0.2500000000000000 0.0998177412122995	0.842489
Zr	0.2500000000000000 0.2500000000000000 0.3499259065053513	2.488464
Zr	0.7500000000000000 0.7500000000000000 0.1500741084946463	2.488464
Zr	0.7500000000000000 0.7500000000000000 0.6500741864946458	2.488463
Zr	0.2500000000000000 0.2500000000000000 0.8499258135053542	2.488463
	  	
