#======================================================================

# CRYSTAL DATA

#----------------------------------------------------------------------

data_VESTA_phase_1


_pd_phase_name                         ZrFSIX_6_Fe_i
_cell_length_a                         17.53678
_cell_length_b                         17.53678
_cell_length_c                         16.34133
_cell_angle_alpha                      90
_cell_angle_beta                       90
_cell_angle_gamma                      90
_symmetry_space_group_name_H-M         P 1
_symmetry_Int_Tables_number            1

loop_
_symmetry_equiv_pos_as_xyz
   x, y, z

loop_
   _atom_site_label
   _atom_site_fract_x
   _atom_site_fract_y
   _atom_site_fract_z
   _atom_site_charge
N	0.2438091177484766 0.1357248292920580 0.1279795928246610	-0.263481
N	0.2561908822515233 0.3642751847079431 0.1279795928246610	-0.263480
N	0.3642751847079431 0.2438091177484766 0.1279795928246610	-0.263480
N	0.1357248292920580 0.2561908822515233 0.1279795928246610	-0.263481
N	0.7561908552515249 0.6357248422920624 0.3720203921753413	-0.263481
N	0.7438091447484751 0.8642751577079376 0.3720203921753413	-0.263480
N	0.6357248422920624 0.7438091447484751 0.3720203921753413	-0.263480
N	0.8642751577079376 0.7561908552515249 0.3720203921753413	-0.263480
N	0.7561908552515249 0.8642751577079376 0.8720203921753411	-0.263480
N	0.7438091447484751 0.6357248422920624 0.8720203921753411	-0.263482
N	0.6357248422920624 0.7561908552515249 0.8720203921753411	-0.263481
N	0.8642751577079376 0.7438091447484751 0.8720203921753411	-0.263481
N	0.2438091177484766 0.3642751847079431 0.6279796078246589	-0.263481
N	0.2561908822515233 0.1357248292920580 0.6279796078246589	-0.263482
N	0.3642751847079431 0.2561908822515233 0.6279796078246589	-0.263482
N	0.1357248292920580 0.2438091177484766 0.6279796078246589	-0.263481
C	0.2008847931812356 0.0985899050535892 0.1840642279111407	0.099513
C	0.1930217902037693 0.0199029360821965 0.1837232321697505	-0.174888
C	0.2320419912317847 0.9762178851224935 0.1252023435827464	0.111635
C	0.2775690830809291 0.0153646759191540 0.0684138017189396	-0.174247
C	0.2813644021727221 0.0943371280741837 0.0709027406135975	0.101937
C	0.2259383432356214 0.8925869565998309 0.1239181296802674	0.059450
C	0.2912105833183308 0.8481895588998751 0.1206281716095357	-0.174236
C	0.2868632574489360 0.7677929750948621 0.1218095600736593	0.085446
C	0.1468338232666766 0.7787062388838034 0.1245891282768024	-0.125226
C	0.1531321270680396 0.8568628964008479 0.1271040505486659	-0.135256
C	0.2991151668187680 0.4014101079464084 0.1840642279111407	0.099511
C	0.3069781697962276 0.4800970449178054 0.1837232321697505	-0.174888
C	0.2679580087682153 0.5237821148775065 0.1252023435827464	0.111636
C	0.2224309299190684 0.4846353210808421 0.0684138017189396	-0.174247
C	0.2186356118272790 0.4056628789258205 0.0709027406135975	0.101935
C	0.2740616567643787 0.6074130434001691 0.1239181296802674	0.059449
C	0.2087894576816691 0.6518104411001249 0.1206281716095357	-0.174233
C	0.2131367155510653 0.7322070249051379 0.1218095600736593	0.085434
C	0.3531661627333224 0.7212937611161966 0.1245891282768024	-0.125235
C	0.3468678729319603 0.6431371035991521 0.1271040505486659	-0.135253
C	0.4014101079464084 0.2008847931812356 0.1840642279111407	0.099513
C	0.4800970449178054 0.1930217902037693 0.1837232321697505	-0.174888
C	0.5237821148775065 0.2320419912317847 0.1252023435827464	0.111635
C	0.4846353210808421 0.2775690830809291 0.0684138017189396	-0.174246
C	0.4056628789258205 0.2813644021727221 0.0709027406135975	0.101936
C	0.6074130434001691 0.2259383432356214 0.1239181296802674	0.059450
C	0.6518104411001249 0.2912105833183308 0.1206281716095357	-0.174234
C	0.7322070249051379 0.2868632574489360 0.1218095600736593	0.085446
C	0.7212937611161966 0.1468338232666766 0.1245891282768024	-0.125226
C	0.6431371035991521 0.1531321270680396 0.1271040505486659	-0.135255
C	0.0985899050535892 0.2991151668187680 0.1840642279111407	0.099512
C	0.0199029360821965 0.3069781697962276 0.1837232321697505	-0.174888
C	0.9762178851224935 0.2679580087682153 0.1252023435827464	0.111636
C	0.0153646759191540 0.2224309299190684 0.0684138017189396	-0.174248
C	0.0943371280741837 0.2186356118272790 0.0709027406135975	0.101937
C	0.8925869565998309 0.2740616567643787 0.1239181296802674	0.059449
C	0.8481895588998751 0.2087894576816691 0.1206281716095357	-0.174235
C	0.7677929750948621 0.2131367155510653 0.1218095600736593	0.085434
C	0.7787062388838034 0.3531661627333224 0.1245891282768024	-0.125235
C	0.8568628964008479 0.3468678729319603 0.1271040505486659	-0.135254
C	0.7991152198187621 0.5985898920535988 0.3159357880888606	0.099514
C	0.8069782227962206 0.5199029010821901 0.3162767368302504	-0.174888
C	0.7679580087682153 0.4762178851224936 0.3747976244172509	0.111635
C	0.7224308899190719 0.5153647329191549 0.4315862022810607	-0.174247
C	0.7186355718272757 0.5943371750741839 0.4290972993863987	0.101936
C	0.7740617367643781 0.3925870095998320 0.3760818623197321	0.059449
C	0.7087894436816680 0.3481895058998747 0.3793718203904636	-0.174234
C	0.7131367425510641 0.2677928950948624 0.3781904399263408	0.085446
C	0.8531661897333280 0.2787062118838045 0.3754108557231963	-0.125227
C	0.8468678199319595 0.3568628704008457 0.3728959814513367	-0.135257
C	0.7008847801812379 0.9014101079464012 0.3159357880888606	0.099511
C	0.6930217772037794 0.9800970449178055 0.3162767368302504	-0.174889
C	0.7320419912317847 0.0237821208775068 0.3747976244172509	0.111637
C	0.7775691100809281 0.9846353210808425 0.4315862022810607	-0.174246
C	0.7813644281727243 0.9056629319258214 0.4290972993863987	0.101935
C	0.7259382632356219 0.1074130174001668 0.3760818623197321	0.059449
C	0.7912105563183320 0.1518104811001205 0.3793718203904636	-0.174234
C	0.7868632574489359 0.2322070779051388 0.3781904399263408	0.085434
C	0.6468338102666720 0.2212937751161979 0.3754108557231963	-0.125236
C	0.6531321800680405 0.1431371035991523 0.3728959814513367	-0.135254
C	0.5985898920535988 0.7008847801812379 0.3159357880888606	0.099514
C	0.5199029010821901 0.6930217772037794 0.3162767368302504	-0.174890
C	0.4762178851224936 0.7320419912317847 0.3747976244172509	0.111637
C	0.5153647329191549 0.7775691100809281 0.4315862022810607	-0.174246
C	0.5943371750741839 0.7813644281727243 0.4290972993863987	0.101936
C	0.3925870095998320 0.7259382632356219 0.3760818623197321	0.059449
C	0.3481895058998747 0.7912105563183320 0.3793718203904636	-0.174235
C	0.2677928950948624 0.7868632574489359 0.3781904399263408	0.085446
C	0.2787062118838045 0.6468338102666720 0.3754108557231963	-0.125227
C	0.3568628704008457 0.6531321800680405 0.3728959814513367	-0.135256
C	0.9014101079464012 0.7991152198187621 0.3159357880888606	0.099512
C	0.9800970449178055 0.8069782227962206 0.3162767368302504	-0.174887
C	0.0237821208775068 0.7679580087682153 0.3747976244172509	0.111635
C	0.9846353210808425 0.7224308899190719 0.4315862022810607	-0.174247
C	0.9056629319258214 0.7186355718272757 0.4290972993863987	0.101936
C	0.1074130174001668 0.7740617367643781 0.3760818623197321	0.059449
C	0.1518104811001205 0.7087894436816680 0.3793718203904636	-0.174233
C	0.2322070779051388 0.7131367425510641 0.3781904399263408	0.085434
C	0.2212937751161979 0.8531661897333280 0.3754108557231963	-0.125236
C	0.1431371035991523 0.8468678199319595 0.3728959814513367	-0.135254
C	0.7991152198187621 0.9014101079464012 0.8159357560888576	0.099512
C	0.8069782227962206 0.9800970449178055 0.8162767998302523	-0.174887
C	0.7679580087682153 0.0237821208775068 0.8747976884172489	0.111636
C	0.7224308899190719 0.9846353210808425 0.9315861712810688	-0.174248
C	0.7186355718272757 0.9056629319258214 0.9290972673863956	0.101935
C	0.7740617367643781 0.1074130174001668 0.8760818623197320	0.059449
C	0.7087894436816680 0.1518104811001205 0.8793718523904663	-0.174234
C	0.7131367425510641 0.2322070779051388 0.8781904719263364	0.085446
C	0.8531661897333280 0.2212937751161979 0.8754109187231981	-0.125228
C	0.8468678199319595 0.1431371035991523 0.8728960134513325	-0.135255
C	0.7008847801812379 0.5985898920535988 0.8159357560888576	0.099513
C	0.6930217772037794 0.5199029010821901 0.8162767998302523	-0.174888
C	0.7320419912317847 0.4762178851224936 0.8747976884172489	0.111635
C	0.7775691100809281 0.5153647329191549 0.9315861712810688	-0.174247
C	0.7813644281727243 0.5943371750741839 0.9290972673863956	0.101936
C	0.7259382632356219 0.3925870095998320 0.8760818623197320	0.059449
C	0.7912105563183320 0.3481895058998747 0.8793718523904663	-0.174235
C	0.7868632574489359 0.2677928950948624 0.8781904719263364	0.085434
C	0.6468338102666720 0.2787062118838045 0.8754109187231981	-0.125235
C	0.6531321800680405 0.3568628704008457 0.8728960134513325	-0.135255
C	0.5985898920535988 0.7991152198187621 0.8159357560888576	0.099513
C	0.5199029010821901 0.8069782227962206 0.8162767998302523	-0.174887
C	0.4762178851224936 0.7679580087682153 0.8747976884172489	0.111636
C	0.5153647329191549 0.7224308899190719 0.9315861712810688	-0.174248
C	0.5943371750741839 0.7186355718272757 0.9290972673863956	0.101937
C	0.3925870095998320 0.7740617367643781 0.8760818623197320	0.059449
C	0.3481895058998747 0.7087894436816680 0.8793718523904663	-0.174236
C	0.2677928950948624 0.7131367425510641 0.8781904719263364	0.085446
C	0.2787062118838045 0.8531661897333280 0.8754109187231981	-0.125228
C	0.3568628704008457 0.8468678199319595 0.8728960134513325	-0.135256
C	0.9014101079464012 0.7008847801812379 0.8159357560888576	0.099513
C	0.9800970449178055 0.6930217772037794 0.8162767998302523	-0.174888
C	0.0237821208775068 0.7320419912317847 0.8747976884172489	0.111635
C	0.9846353210808425 0.7775691100809281 0.9315861712810688	-0.174246
C	0.9056629319258214 0.7813644281727243 0.9290972673863956	0.101936
C	0.1074130174001668 0.7259382632356219 0.8760818623197320	0.059449
C	0.1518104811001205 0.7912105563183320 0.8793718523904663	-0.174234
C	0.2322070779051388 0.7868632574489359 0.8781904719263364	0.085434
C	0.2212937751161979 0.6468338102666720 0.8754109187231981	-0.125235
C	0.1431371035991523 0.6531321800680405 0.8728960134513325	-0.135254
C	0.2008847931812356 0.4014101079464084 0.6840642439111424	0.099511
C	0.1930217902037693 0.4800970449178054 0.6837232001697477	-0.174888
C	0.2320419912317847 0.5237821148775065 0.6252023115827511	0.111636
C	0.2775690830809291 0.4846353210808421 0.5684138287189312	-0.174246
C	0.2813644021727221 0.4056628789258205 0.5709027326136044	0.101935
C	0.2259383432356214 0.6074130434001691 0.6239181376802680	0.059449
C	0.2912105833183308 0.6518104411001249 0.6206281476095337	-0.174236
C	0.2868632574489360 0.7322070249051379 0.6218095280736636	0.085445
C	0.1468338232666766 0.7212937611161966 0.6245890812768019	-0.125229
C	0.1531321270680396 0.6431371035991521 0.6271039865486675	-0.135255
C	0.2991151668187680 0.0985899050535892 0.6840642439111424	0.099513
C	0.3069781697962276 0.0199029360821965 0.6837232001697477	-0.174888
C	0.2679580087682153 0.9762178851224935 0.6252023115827511	0.111635
C	0.2224309299190684 0.0153646759191540 0.5684138287189312	-0.174248
C	0.2186356118272790 0.0943371280741837 0.5709027326136044	0.101937
C	0.2740616567643787 0.8925869565998309 0.6239181376802680	0.059449
C	0.2087894576816691 0.8481895588998751 0.6206281476095337	-0.174235
C	0.2131367155510653 0.7677929750948621 0.6218095280736636	0.085434
C	0.3531661627333224 0.7787062388838034 0.6245890812768019	-0.125236
C	0.3468678729319603 0.8568628964008479 0.6271039865486675	-0.135256
C	0.4014101079464084 0.2991151668187680 0.6840642439111424	0.099512
C	0.4800970449178054 0.3069781697962276 0.6837232001697477	-0.174887
C	0.5237821148775065 0.2679580087682153 0.6252023115827511	0.111635
C	0.4846353210808421 0.2224309299190684 0.5684138287189312	-0.174247
C	0.4056628789258205 0.2186356118272790 0.5709027326136044	0.101936
C	0.6074130434001691 0.2740616567643787 0.6239181376802680	0.059450
C	0.6518104411001249 0.2087894576816691 0.6206281476095337	-0.174236
C	0.7322070249051379 0.2131367155510653 0.6218095280736636	0.085446
C	0.7212937611161966 0.3531661627333224 0.6245890812768019	-0.125229
C	0.6431371035991521 0.3468678729319603 0.6271039865486675	-0.135255
C	0.0985899050535892 0.2008847931812356 0.6840642439111424	0.099513
C	0.0199029360821965 0.1930217902037693 0.6837232001697477	-0.174889
C	0.9762178851224935 0.2320419912317847 0.6252023115827511	0.111636
C	0.0153646759191540 0.2775690830809291 0.5684138287189312	-0.174246
C	0.0943371280741837 0.2813644021727221 0.5709027326136044	0.101936
C	0.8925869565998309 0.2259383432356214 0.6239181376802680	0.059448
C	0.8481895588998751 0.2912105833183308 0.6206281476095337	-0.174236
C	0.7677929750948621 0.2868632574489360 0.6218095280736636	0.085434
C	0.7787062388838034 0.1468338232666766 0.6245890812768019	-0.125236
C	0.8568628964008479 0.1531321270680396 0.6271039865486675	-0.135255
H	0.1736224083857041 0.1334633684822366 0.2309658517797805	0.095561
H	0.1584704191723884 0.9922870698483697 0.2306352749677096	0.115964
H	0.3080999622676293 0.9842905240042447 0.0207806288493616	0.116813
H	0.3138581062660961 0.1262291712095657 0.0254408323067354	0.094099
H	0.3472873777265257 0.8753328289045189 0.1200254702556772	0.109227
H	0.0908383920542363 0.7514211625333255 0.1251572870324981	0.111575
H	0.1022120143143504 0.8926024664954832 0.1293949625630886	0.102380
H	0.3263775646142976 0.3665366585177693 0.2309658517797805	0.095560
H	0.3415296208276080 0.5077129301516303 0.2306352749677096	0.115963
H	0.1919000507323682 0.5157094759957553 0.0207806288493616	0.116814
H	0.1861418937339039 0.3737708287904345 0.0254408323067354	0.094098
H	0.1527126362734754 0.6246671710954811 0.1200254702556772	0.109227
H	0.4091616009457597 0.7485788374666745 0.1251572870324981	0.111577
H	0.3977879986856543 0.6073975335045168 0.1293949625630886	0.102381
H	0.3665366585177693 0.1736224083857041 0.2309658517797805	0.095560
H	0.5077129301516303 0.1584704191723884 0.2306352749677096	0.115964
H	0.5157094759957553 0.3080999622676293 0.0207806288493616	0.116813
H	0.3737708287904345 0.3138581062660961 0.0254408323067354	0.094098
H	0.6246671710954811 0.3472873777265257 0.1200254702556772	0.109227
H	0.7485788374666745 0.0908383920542363 0.1251572870324981	0.111575
H	0.6073975335045168 0.1022120143143504 0.1293949625630886	0.102380
H	0.1334633684822366 0.3263775646142976 0.2309658517797805	0.095561
H	0.9922870698483697 0.3415296208276080 0.2306352749677096	0.115963
H	0.9842905240042447 0.1919000507323682 0.0207806288493616	0.116814
H	0.1262291712095657 0.1861418937339039 0.0254408323067354	0.094099
H	0.8753328289045189 0.1527126362734754 0.1200254702556772	0.109226
H	0.7514211625333255 0.4091616009457597 0.1251572870324981	0.111578
H	0.8926024664954832 0.3977879986856543 0.1293949625630886	0.102380
H	0.8263775646142971 0.6334633954822352 0.2690341642202208	0.095561
H	0.8415295398276115 0.4922871238483670 0.2693647250322906	0.115965
H	0.6919000377323707 0.4842905240042449 0.4792193731506385	0.116813
H	0.6861419467339048 0.6262291982095642 0.4745591656932645	0.094098
H	0.6527126222734745 0.3753327749045214 0.3799745377443234	0.109225
H	0.9091615479457589 0.2514211895333242 0.3748427049675013	0.111577
H	0.8977879716856557 0.3926024924954785 0.3706050454369120	0.102382
H	0.6736224353857029 0.8665366045177648 0.2690341642202208	0.095561
H	0.6584704601723885 0.0077128921516272 0.2693647250322906	0.115965
H	0.8080999622676293 0.0157094749957515 0.4792193731506385	0.116813
H	0.8138580532660952 0.8737708017904358 0.4745591656932645	0.094098
H	0.8472873777265255 0.1246672380954831 0.3799745377443234	0.109227
H	0.5908383990542403 0.2485787834666699 0.3748427049675013	0.111576
H	0.6022120283143443 0.1073975205045191 0.3706050454369120	0.102380
H	0.6334633954822352 0.6736224353857029 0.2690341642202208	0.095561
H	0.4922871238483670 0.6584704601723885 0.2693647250322906	0.115965
H	0.4842905240042449 0.8080999622676293 0.4792193731506385	0.116812
H	0.6262291982095642 0.8138580532660952 0.4745591656932645	0.094099
H	0.3753327749045214 0.8472873777265255 0.3799745377443234	0.109226
H	0.2514211895333242 0.5908383990542403 0.3748427049675013	0.111576
H	0.3926024924954785 0.6022120283143443 0.3706050454369120	0.102380
H	0.8665366045177648 0.8263775646142971 0.2690341642202208	0.095561
H	0.0077128921516272 0.8415295398276115 0.2693647250322906	0.115964
H	0.0157094749957515 0.6919000377323707 0.4792193731506385	0.116814
H	0.8737708017904358 0.6861419467339048 0.4745591656932645	0.094098
H	0.1246672380954831 0.6527126222734745 0.3799745377443234	0.109226
H	0.2485787834666699 0.9091615479457589 0.3748427049675013	0.111578
H	0.1073975205045191 0.8977879716856557 0.3706050454369120	0.102381
H	0.8263775646142971 0.8665366045177648 0.7690341332202216	0.095561
H	0.8415295398276115 0.0077128921516272 0.7693647400322953	0.115964
H	0.6919000377323707 0.0157094749957515 0.9792194041506377	0.116815
H	0.6861419467339048 0.8737708017904358 0.9745591016932664	0.094098
H	0.6527126222734745 0.1246672380954831 0.8799745057443208	0.109227
H	0.9091615479457589 0.2485787834666699 0.8748426419674996	0.111578
H	0.8977879716856557 0.1073975205045191 0.8706050134369091	0.102381
H	0.6736224353857029 0.6334633954822352 0.7690341332202216	0.095562
H	0.6584704601723885 0.4922871238483670 0.7693647400322953	0.115964
H	0.8080999622676293 0.4842905240042449 0.9792194041506377	0.116814
H	0.8138580532660952 0.6262291982095642 0.9745591016932664	0.094098
H	0.8472873777265255 0.3753327749045214 0.8799745057443208	0.109227
H	0.5908383990542403 0.2514211895333242 0.8748426419674996	0.111577
H	0.6022120283143443 0.3926024924954785 0.8706050134369091	0.102380
H	0.6334633954822352 0.8263775646142971 0.7690341332202216	0.095562
H	0.4922871238483670 0.8415295398276115 0.7693647400322953	0.115963
H	0.4842905240042449 0.6919000377323707 0.9792194041506377	0.116814
H	0.6262291982095642 0.6861419467339048 0.9745591016932664	0.094099
H	0.3753327749045214 0.6527126222734745 0.8799745057443208	0.109226
H	0.2514211895333242 0.9091615479457589 0.8748426419674996	0.111578
H	0.3926024924954785 0.8977879716856557 0.8706050134369091	0.102380
H	0.8665366045177648 0.6736224353857029 0.7690341332202216	0.095561
H	0.0077128921516272 0.6584704601723885 0.7693647400322953	0.115965
H	0.0157094749957515 0.8080999622676293 0.9792194041506377	0.116814
H	0.8737708017904358 0.8138580532660952 0.9745591016932664	0.094098
H	0.1246672380954831 0.8472873777265255 0.8799745057443208	0.109227
H	0.2485787834666699 0.5908383990542403 0.8748426419674996	0.111576
H	0.1073975205045191 0.6022120283143443 0.8706050134369091	0.102380
H	0.1736224083857040 0.3665366585177693 0.7309658667797784	0.095561
H	0.1584704191723884 0.5077129301516303 0.7306352599677047	0.115965
H	0.3080999622676293 0.5157094759957553 0.5207806268493613	0.116814
H	0.3138581062660961 0.3737708287904345 0.5254408343067354	0.094098
H	0.3472873777265257 0.6246671710954811 0.6200254942556792	0.109228
H	0.0908383920542363 0.7485788374666745 0.6251573580325004	0.111577
H	0.1022120143143504 0.6073975335045168 0.6293949865630909	0.102380
H	0.3263775646142976 0.1334633684822366 0.7309658667797784	0.095561
H	0.3415296208276080 0.9922870698483697 0.7306352599677047	0.115965
H	0.1919000507323682 0.9842905240042447 0.5207806268493613	0.116815
H	0.1861418937339039 0.1262291712095657 0.5254408343067354	0.094099
H	0.1527126362734754 0.8753328289045189 0.6200254942556792	0.109225
H	0.4091616009457597 0.7514211625333255 0.6251573580325004	0.111578
H	0.3977879986856543 0.8926024664954832 0.6293949865630909	0.102382
H	0.3665366585177693 0.3263775646142976 0.7309658667797784	0.095561
H	0.5077129301516303 0.3415296208276080 0.7306352599677047	0.115964
H	0.5157094759957553 0.1919000507323682 0.5207806268493613	0.116815
H	0.3737708287904345 0.1861418937339039 0.5254408343067354	0.094098
H	0.6246671710954811 0.1527126362734754 0.6200254942556792	0.109226
H	0.7485788374666745 0.4091616009457597 0.6251573580325004	0.111578
H	0.6073975335045168 0.3977879986856543 0.6293949865630909	0.102382
H	0.1334633684822366 0.1736224083857040 0.7309658667797784	0.095561
H	0.9922870698483697 0.1584704191723884 0.7306352599677047	0.115965
H	0.9842905240042447 0.3080999622676293 0.5207806268493613	0.116814
H	0.1262291712095657 0.3138581062660961 0.5254408343067354	0.094099
H	0.8753328289045189 0.3472873777265257 0.6200254942556792	0.109226
H	0.7514211625333255 0.0908383920542363 0.6251573580325004	0.111577
H	0.8926024664954832 0.1022120143143504 0.6293949865630909	0.102380
F	0.3194141755720425 0.1564340892207041 0.3782027548445769	-0.688887
F	0.1805858514279562 0.3435659107792959 0.3782027548445769	-0.688886
F	0.3435659107792959 0.3194141755720425 0.3782027548445769	-0.688887
F	0.1564340892207041 0.1805858514279562 0.3782027548445769	-0.688887
F	0.6805858244279571 0.6564340352207064 0.1217972451554231	-0.688887
F	0.8194141755720429 0.8435659647792936 0.1217972451554231	-0.688887
F	0.6564340352207064 0.8194141755720429 0.1217972451554231	-0.688886
F	0.8435659647792936 0.6805858244279571 0.1217972451554231	-0.688888
F	0.6805858244279571 0.8435659647792936 0.6217972131554204	-0.688886
F	0.8194141755720429 0.6564340352207064 0.6217972131554204	-0.688887
F	0.6564340352207064 0.6805858244279571 0.6217972131554204	-0.688887
F	0.8435659647792936 0.8194141755720429 0.6217972131554204	-0.688887
F	0.3194141755720425 0.3435659107792959 0.8782027868445796	-0.688887
F	0.1805858514279562 0.1564340892207041 0.8782027868445796	-0.688887
F	0.3435659107792959 0.1805858514279562 0.8782027868445796	-0.688888
F	0.1564340892207041 0.3194141755720425 0.8782027868445796	-0.688886
F	0.2500000000000000 0.2500000000000000 0.2529994501170836	-0.596576
F	0.2500000000000000 0.2500000000000000 0.5034745909990784	-0.598228
F	0.7500000000000000 0.7500000000000000 0.2470005658829179	-0.596576
F	0.7500000000000000 0.7500000000000000 0.9965254160009257	-0.598228
F	0.7500000000000000 0.7500000000000000 0.7470005178829139	-0.596577
F	0.7500000000000000 0.7500000000000000 0.4965254410009241	-0.598228
F	0.2500000000000000 0.2500000000000000 0.7529994821170861	-0.596577
F	0.2500000000000000 0.2500000000000000 0.0034745589990758	-0.598228
Fe	0.2500000000000000 0.2500000000000000 0.1283386326619615	0.844309
Fe	0.7500000000000000 0.7500000000000000 0.3716613833380398	0.844308
Fe	0.7500000000000000 0.7500000000000000 0.8716613523380404	0.844310
Fe	0.2500000000000000 0.2500000000000000 0.6283386476619596	0.844311
Zr	0.2500000000000000 0.2500000000000000 0.3782869518592382	2.481011
Zr	0.7500000000000000 0.7500000000000000 0.1217130561407625	2.481011
Zr	0.7500000000000000 0.7500000000000000 0.6217130171407631	2.481011
Zr	0.2500000000000000 0.2500000000000000 0.8782869828592369	2.481011
	  	
