#======================================================================

# CRYSTAL DATA

#----------------------------------------------------------------------

data_VESTA_phase_1


_pd_phase_name                         ZrFSIX_2_Ni
_cell_length_a                         13.87753
_cell_length_b                         13.87753
_cell_length_c                         8.15267
_cell_angle_alpha                      90
_cell_angle_beta                       90
_cell_angle_gamma                      90
_symmetry_space_group_name_H-M         P 1
_symmetry_Int_Tables_number            1

loop_
_symmetry_equiv_pos_as_xyz
   x, y, z

loop_
   _atom_site_label
   _atom_site_fract_x
   _atom_site_fract_y
   _atom_site_fract_z
   _atom_site_charge
C	0.5312086413198052 0.7013472125843223 0.1317204010692993	0.103562
C	0.5316077320258098 0.8012537638420733 0.1374690957682576	-0.161704
C	0.4687914286801936 0.2986527874156772 0.1317204010692993	0.103560
C	0.4683922329741909 0.1987462181579254 0.1374690957682576	-0.161702
C	0.2986527874156772 0.5312086413198052 0.1317204010692993	0.103563
C	0.1987462181579254 0.5316077320258098 0.1374690957682576	-0.161704
C	0.7013472125843223 0.4687914286801936 0.1317204010692993	0.103560
C	0.8012537638420733 0.4683922329741909 0.1374690957682575	-0.161702
C	0.4687914286801936 0.7013472125843223 0.8682795989307006	0.103563
C	0.4683922329741909 0.8012537638420733 0.8625308742317402	-0.161703
C	0.5312086413198052 0.2986527874156772 0.8682795989307006	0.103561
C	0.5316077320258098 0.1987462181579254 0.8625308742317402	-0.161701
C	0.7013472125843223 0.5312086413198052 0.8682795989307006	0.103561
C	0.8012537638420733 0.5316077320258098 0.8625308742317402	-0.161701
C	0.2986527874156772 0.4687914286801936 0.8682795989307006	0.103564
C	0.1987462181579254 0.4683922329741909 0.8625308742317402	-0.161703
C	0.5000000000000000 0.1461050483438244 0.0000000000000000	0.170499
C	0.5000000000000000 0.0439405906066988 0.0000000000000000	-0.091130
C	0.5000000000000000 0.8538949516561753 0.0000000000000000	0.170468
C	0.5000000000000000 0.9560593523933071 0.0000000000000000	-0.090881
C	0.8538949516561753 0.5000000000000000 0.0000000000000000	0.170499
C	0.9560593523933071 0.5000000000000000 0.0000000000000000	-0.091130
C	0.1461050483438244 0.5000000000000000 0.0000000000000000	0.170468
C	0.0439405906066988 0.5000000000000000 0.0000000000000000	-0.090880
H	0.5564867455259803 0.6598005464933447 0.2366496690284824	0.090660
H	0.5567370386894698 0.8376605654742397 0.2476418481804673	0.130309
H	0.4435132544740197 0.3401993835066563 0.2366496690284824	0.090660
H	0.4432629963105291 0.1623393645257617 0.2476418481804673	0.130310
H	0.3401993835066563 0.5564867455259803 0.2366496690284824	0.090660
H	0.1623393645257617 0.5567370386894698 0.2476418481804673	0.130309
H	0.6598005464933447 0.4435132544740197 0.2366496690284824	0.090660
H	0.8376605654742397 0.4432629963105291 0.2476418481804673	0.130310
H	0.4435132544740197 0.6598005464933447 0.7633503309715174	0.090660
H	0.4432629963105291 0.8376605654742397 0.7523581818195352	0.130307
H	0.5564867455259803 0.3401993835066563 0.7633503309715174	0.090660
H	0.5567370386894698 0.1623393645257617 0.7523581818195352	0.130308
H	0.6598005464933447 0.5564867455259803 0.7633503309715174	0.090660
H	0.8376605654742397 0.5567370386894698 0.7523581818195352	0.130308
H	0.3401993835066563 0.4435132544740197 0.7633503309715174	0.090660
H	0.1623393645257617 0.4432629963105291 0.7523581818195352	0.130306
Ni	0.5000000000000000 0.5000000000000000 0.0000000000000000	0.776893
Zr	0.5000000000000000 0.5000000000000000 0.5000000000000000	2.468845
F	0.5000000000000000 0.5000000000000000 0.7543205466426044	-0.613483
F	0.5000000000000000 0.5000000000000000 0.2456794833573911	-0.613483
F	0.6036710165225782 0.6036710165225782 0.5000000000000000	-0.670813
F	0.3963290184774210 0.6036710165225782 0.5000000000000000	-0.670813
F	0.3963290184774210 0.3963290184774210 0.5000000000000000	-0.670813
F	0.6036710165225782 0.3963290184774210 0.5000000000000000	-0.670814
N	0.5000000000000000 0.3484730026627125 0.0000000000000000	-0.239012
N	0.5000000000000000 0.6515269623372882 0.0000000000000000	-0.239011
N	0.6515269623372882 0.5000000000000000 0.0000000000000000	-0.239012
N	0.3484730026627125 0.5000000000000000 0.0000000000000000	-0.239011
	  	
