#======================================================================

# CRYSTAL DATA

#----------------------------------------------------------------------

data_VESTA_phase_1


_pd_phase_name                         ZrFSIX_18_Cu
_cell_length_a                         13.85144
_cell_length_b                         13.50444
_cell_length_c                         8.75705
_cell_angle_alpha                      90
_cell_angle_beta                       95.25503
_cell_angle_gamma                      90
_symmetry_space_group_name_H-M         P 1
_symmetry_Int_Tables_number            1

loop_
_symmetry_equiv_pos_as_xyz
   x, y, z

loop_
   _atom_site_label
   _atom_site_fract_x
   _atom_site_fract_y
   _atom_site_fract_z
   _atom_site_charge
F	0.4021952335345507 0.3512050275712603 0.5162470598393971	-0.666158
F	0.5257009103621719 0.4728150447276531 0.7349026339724275	-0.643577
F	0.3923767456820467 0.5643272253369440 0.5230519982038252	-0.641971
F	0.9021952675345468 0.8512049585712583 0.5162470598393971	-0.666158
F	0.0257009363621669 0.9728150097276536 0.7349026339724275	-0.643580
F	0.8923767796820498 0.0643271913369482 0.5230519982038252	-0.641971
F	0.5978047294654494 0.3512050275712603 0.4837529401606027	-0.666158
F	0.4742990866378317 0.4728150447276531 0.2650973660275728	-0.643577
F	0.6076232503179527 0.5643272253369440 0.4769480027961782	-0.641971
F	0.0978047504654479 0.8512049585712583 0.4837529401606027	-0.666158
F	0.9742989516378309 0.9728150097276536 0.2650973660275728	-0.643580
F	0.1076232253179545 0.0643271913369482 0.4769480027961782	-0.641971
C	0.6839832029421169 0.1562884816247216 0.6756780278478310	-0.425960
C	0.7579089057107917 0.1526513034521046 0.8100677267873007	0.218739
C	0.7605565940850811 0.1966494722566969 0.9554437015758938	-0.150342
C	0.6882176762427148 0.2620618380103685 0.0130829683951423	-0.143878
C	0.6725224622184698 0.3628475978825112 0.9726953176326147	0.223667
C	0.7304948230493807 0.4249528091172343 0.8744987663760967	-0.433546
C	0.8902202478012300 0.1992881045188497 0.1896112056068880	-0.432914
C	0.8505471490734946 0.1687080581685159 0.0329992189673419	0.216664
C	0.6219508038470293 0.2405093538661769 0.1203559259298354	0.220762
C	0.6030625776826058 0.1493866357910796 0.2082457315426770	-0.425170
C	0.1839832529421138 0.6562885336247191 0.6756780278478310	-0.425970
C	0.2579089397107946 0.6526512864520999 0.8100677267873007	0.218739
C	0.2605565600850787 0.6966494382566941 0.9554437015758938	-0.150338
C	0.1882176762427150 0.7620618550103657 0.0130829683951423	-0.143896
C	0.1725224452184650 0.8628476318825141 0.9726953176326147	0.223679
C	0.2304948390493748 0.9249527741172352 0.8744987663760967	-0.433547
C	0.3902201468012251 0.6992880185188497 0.1896112056068880	-0.432925
C	0.3505472170734926 0.6687080581685156 0.0329992189673419	0.216664
C	0.1219507788470307 0.7405092678661768 0.1203559259298354	0.220839
C	0.1030626616826059 0.6493867047910814 0.2082457315426770	-0.425183
C	0.3160167940578864 0.1562884816247216 0.3243219731521725	-0.425960
C	0.2420910872892041 0.1526513034521046 0.1899321932126999	0.218739
C	0.2394434349149175 0.1966494722566969 0.0445562744241115	-0.150342
C	0.3117823197572849 0.2620618380103685 0.9869170226048608	-0.143878
C	0.3274776037815352 0.3628475978825112 0.0273047333673860	0.223667
C	0.2695051919506243 0.4249528091172343 0.1255012496239053	-0.433546
C	0.1097798351987733 0.1992881045188497 0.8103888423931160	-0.432926
C	0.1494528299265074 0.1687080581685159 0.9670007690326569	0.216664
C	0.3780492271529699 0.2405093538661769 0.8796440980701592	0.220761
C	0.3969373483173950 0.1493866357910796 0.7917541894573272	-0.425168
C	0.8160167940578864 0.6562885336247191 0.3243219731521725	-0.425970
C	0.7420910872892041 0.6526512864520999 0.1899321932126999	0.218740
C	0.7394434009149220 0.6966494382566941 0.0445562744241115	-0.150338
C	0.8117823197572849 0.7620618550103657 0.9869170226048608	-0.143896
C	0.8274775367815337 0.8628476318825141 0.0273047333673860	0.223679
C	0.7695051749506191 0.9249527741172352 0.1255012496239053	-0.433547
C	0.6097797511987735 0.6992880185188497 0.8103888423931160	-0.432926
C	0.6494528469265051 0.6687080581685156 0.9670007690326569	0.216664
C	0.8780491931529669 0.7405092678661768 0.8796440980701592	0.220838
C	0.8969374153173970 0.6493867047910814 0.7917541894573272	-0.425181
H	0.7172539871118330 0.1751248512760153 0.5702872643583476	0.160507
H	0.6287726942474016 0.2124522580111982 0.6919524744523297	0.143199
H	0.6480006351835315 0.0840229423534843 0.6571208888680684	0.135521
H	0.6841710075598725 0.4702897773555331 0.7943103413237702	0.144060
H	0.7760213941251344 0.3777322940063850 0.8087637947094688	0.143156
H	0.7781097225957961 0.4746855718057810 0.9468532059444889	0.131080
H	0.8677292538372281 0.0725948596066201 0.7095007431725506	0.282654
H	0.8887527181704685 0.1392704037372365 0.2739598479670111	0.143899
H	0.8465613896238020 0.2607858045251088 0.2281959611748841	0.140542
H	0.9658314862198258 0.2237256692051950 0.1894636780592936	0.143023
H	0.5817208267725201 0.1691548948851606 0.3221226006590408	0.154797
H	0.6679674737081452 0.1027052085725755 0.2230003459464027	0.153345
H	0.5443749470632087 0.1050314830585614 0.1488397397755289	0.132615
H	0.5204001665179895 0.3400839468730386 0.2092436108926212	0.269531
H	0.2172540381118341 0.6751247482760178 0.5702872643583476	0.160508
H	0.1287727782474015 0.7124521890111959 0.6919524744523297	0.143220
H	0.1480006851835282 0.5840228823534794 0.6571208888680684	0.135510
H	0.1841710245598706 0.9702897093555205 0.7943103413237702	0.144060
H	0.2760214281251371 0.8777323280063875 0.8087637947094688	0.143156
H	0.2781097555957954 0.9746855718057810 0.9468532059444889	0.131079
H	0.3677292198372326 0.5725949026066198 0.7095007431725506	0.282654
H	0.3887527851704704 0.6392703697372335 0.2739598479670111	0.143900
H	0.3465613216238029 0.7607858395251081 0.2281959611748841	0.140543
H	0.4658315532198204 0.7237257202051887 0.1894636780592936	0.143033
H	0.0817208187725199 0.6691549118851589 0.3221226006590408	0.154799
H	0.1679674397081427 0.6027051655725756 0.2230003459464027	0.153346
H	0.0443749830632116 0.6050314310585639 0.1488397397755289	0.132615
H	0.0204001515179917 0.8400839468730382 0.2092436108926212	0.269531
H	0.2827459438881715 0.1751248512760153 0.4297127676416483	0.160507
H	0.3712272047525936 0.2124522580111982 0.3080475905476719	0.143197
H	0.3519992938164737 0.0840229423534843 0.3428791111319314	0.135524
H	0.3158289874401303 0.4702897773555331 0.2056896266762340	0.144059
H	0.2239786008748617 0.3777322940063850 0.1912361732905287	0.143157
H	0.2218902734042105 0.4746855718057810 0.0531467670555128	0.131077
H	0.1322707471627683 0.0725948596066201 0.2904991618274453	0.282655
H	0.1112472048295286 0.1392704037372365 0.7260401840329918	0.143900
H	0.1534386743761968 0.2607858045251088 0.7718040388251158	0.140546
H	0.0341684427801792 0.2237256692051950 0.8105363539407018	0.143035
H	0.4182792032274818 0.1691548948851606 0.6778773993409595	0.154794
H	0.3320325882918595 0.1027052085725755 0.7769996060535935	0.153343
H	0.4556250179367919 0.1050314830585614 0.8511603002244745	0.132609
H	0.4795997944820109 0.3400839468730386 0.7907563421073790	0.269530
H	0.7827460108881669 0.6751247482760178 0.4297127676416483	0.160508
H	0.8712273057525984 0.7124521890111959 0.3080475905476719	0.143218
H	0.8519992938164733 0.5840228823534794 0.3428791111319314	0.135513
H	0.8158289874401307 0.9702897093555205 0.2056896266762340	0.144059
H	0.7239786008748617 0.8777323280063875 0.1912361732905287	0.143158
H	0.7218902734042106 0.9746855718057810 0.0531467670555128	0.131076
H	0.6322707381627712 0.5725949026066198 0.2904991618274453	0.282654
H	0.6112473138295270 0.6392703697372335 0.7260401840329918	0.143900
H	0.6534386073761942 0.7607858395251081 0.7718040388251158	0.140546
H	0.5341684787801748 0.7237257202051887 0.8105363539407018	0.143036
H	0.9182791362274804 0.6691549118851589 0.6778773993409595	0.154796
H	0.8320325212918579 0.6027051655725756 0.7769996060535935	0.153344
H	0.9556250179367920 0.6050314310585638 0.8511603002244745	0.132609
H	0.9795997604820151 0.8400839468730382 0.7907563421073790	0.269530
N	0.8412967484893157 0.1012982463004589 0.8072680127397530	-0.147121
N	0.5996976090764098 0.3991470009499586 0.0481303885399135	-0.242147
N	0.8987983516282394 0.1105542249010352 0.9406339028449904	-0.245097
N	0.5711232035299818 0.3241945171977377 0.1358616912611344	-0.145172
N	0.3412967484893161 0.6012981693004633 0.8072680127397530	-0.147123
N	0.0996976760764115 0.8991470009499586 0.0481303885399135	-0.242180
N	0.3987983856282424 0.6105542759010357 0.9406339028449904	-0.245095
N	0.0711231955299810 0.8241944821977383 0.1358616912611344	-0.145206
N	0.1587032335106826 0.1012982463004589 0.1927320352602435	-0.147121
N	0.4003022849235888 0.3991470009499586 0.9518695874600842	-0.242146
N	0.1012016183717579 0.1105542249010352 0.0593660771550079	-0.245097
N	0.4288767934700217 0.3241945171977377 0.8641383247388671	-0.145172
N	0.6587032505106807 0.6012981693004633 0.1927320352602435	-0.147123
N	0.9003023859235934 0.8991470009499586 0.9518695874600842	-0.242180
N	0.6012016433717637 0.6105542759010357 0.0593660771550079	-0.245094
N	0.9288768274700172 0.8241944821977383 0.8641383247388671	-0.145205
Zr	0.4999999979999998 0.4609984001452057 0.5000000000000000	2.433130
Zr	0.0000000000000000 0.9609984001452052 0.5000000000000000	2.433130
Cu	0.5000000000000000 0.5086319589644515 0.0000000000000000	0.737460
Cu	0.0000000000000000 0.0086319659644554 0.0000000000000000	0.737469
	  	
