#======================================================================

# CRYSTAL DATA

#----------------------------------------------------------------------

data_VESTA_phase_1


_pd_phase_name                         ZrFSIX_2_Co_i
_cell_length_a                         13.60981
_cell_length_b                         13.60981
_cell_length_c                         8.55453
_cell_angle_alpha                      90
_cell_angle_beta                       90
_cell_angle_gamma                      90
_symmetry_space_group_name_H-M         P 1
_symmetry_Int_Tables_number            1

loop_
_symmetry_equiv_pos_as_xyz
   x, y, z

loop_
   _atom_site_label
   _atom_site_fract_x
   _atom_site_fract_y
   _atom_site_fract_z
   _atom_site_charge
C	-0.0000000000000000 0.2982400753480866 0.3592305938013433	-0.150621
C	-0.0000000000000000 0.1965518714918531 0.3643105968337595	0.099703
C	0.5000000000000000 0.7982400753480863 0.8592306228013422	-0.150599
C	0.5000000000000000 0.6965518894918548 0.8643105968337597	0.099700
C	-0.0000000000000000 0.7017599246519137 0.3592305938013433	-0.150623
C	-0.0000000000000000 0.8034481105081452 0.3643105968337595	0.099705
C	0.5000000000000000 0.2017599416519113 0.8592306228013422	-0.150602
C	0.5000000000000000 0.3034481105081455 0.8643105968337597	0.099702
C	0.7017599246519137 0.0000000000000000 0.3592305938013433	-0.150621
C	0.8034481105081452 0.0000000000000000 0.3643105968337595	0.099703
C	0.2017599416519113 0.5000000000000000 0.8592306228013422	-0.150599
C	0.3034481105081455 0.5000000000000000 0.8643105968337597	0.099700
C	0.2982400753480866 0.0000000000000000 0.3592305938013433	-0.150623
C	0.1965518714918531 0.0000000000000000 0.3643105968337595	0.099705
C	0.7982400753480863 0.5000000000000000 0.8592306228013422	-0.150601
C	0.6965518894918548 0.5000000000000000 0.8643105968337597	0.099702
C	-0.0000000000000000 0.2982400753480866 0.6407693771986578	-0.150620
C	-0.0000000000000000 0.1965518714918531 0.6356894031662403	0.099703
C	0.5000000000000000 0.7982400753480863 0.1407694061986569	-0.150599
C	0.5000000000000000 0.6965518894918548 0.1356893881662425	0.099700
C	-0.0000000000000000 0.7017599246519137 0.6407693771986578	-0.150623
C	-0.0000000000000000 0.8034481105081452 0.6356894031662403	0.099705
C	0.5000000000000000 0.2017599416519113 0.1407694061986569	-0.150601
C	0.5000000000000000 0.3034481105081455 0.1356893881662425	0.099702
C	0.2982400753480866 0.0000000000000000 0.6407693771986578	-0.150622
C	0.1965518714918531 0.0000000000000000 0.6356894031662403	0.099705
C	0.7982400753480863 0.5000000000000000 0.1407694061986569	-0.150601
C	0.6965518894918548 0.5000000000000000 0.1356893881662425	0.099702
C	0.7017599246519137 0.0000000000000000 0.6407693771986578	-0.150620
C	0.8034481105081452 0.0000000000000000 0.6356894031662403	0.099703
C	0.2017599416519113 0.5000000000000000 0.1407694061986569	-0.150598
C	0.3034481105081455 0.5000000000000000 0.1356893881662425	0.099700
C	-0.0000000000000000 0.4551924805472035 0.5000000000000000	-0.093568
C	-0.0000000000000000 0.3516552782402071 0.5000000000000000	0.162698
C	0.5000000000000000 0.9551925145472062 -0.0000000000000000	-0.093512
C	0.5000000000000000 0.8516552432402077 -0.0000000000000000	0.162612
C	-0.0000000000000000 0.5448075194527966 0.5000000000000000	-0.093323
C	-0.0000000000000000 0.6483447567597923 0.5000000000000000	0.162669
C	0.5000000000000000 0.0448074984527913 -0.0000000000000000	-0.093268
C	0.5000000000000000 0.1483447567597920 -0.0000000000000000	0.162583
C	0.5448075194527966 0.0000000000000000 0.5000000000000000	-0.093568
C	0.6483447567597923 0.0000000000000000 0.5000000000000000	0.162698
C	0.0448074984527913 0.5000000000000000 -0.0000000000000000	-0.093512
C	0.1483447567597920 0.5000000000000000 -0.0000000000000000	0.162612
C	0.4551924805472035 0.0000000000000000 0.5000000000000000	-0.093323
C	0.3516552782402071 0.0000000000000000 0.5000000000000000	0.162669
C	0.9551925145472063 0.5000000000000000 -0.0000000000000000	-0.093267
C	0.8516552432402077 0.5000000000000000 -0.0000000000000000	0.162583
H	-0.0000000000000000 0.3354654806911947 0.2465025822472485	0.125259
H	-0.0000000000000000 0.1542232940344831 0.2568926794550591	0.090918
H	0.5000000000000000 0.8354654806911950 0.7465025822472483	0.125257
H	0.5000000000000000 0.6542232410344825 0.7568927094550617	0.090918
H	-0.0000000000000000 0.6645345193088050 0.2465025822472485	0.125258
H	-0.0000000000000000 0.8457767589655175 0.2568926794550591	0.090918
H	0.5000000000000000 0.1645345193088049 0.7465025822472483	0.125255
H	0.5000000000000000 0.3457767239655112 0.7568927094550617	0.090918
H	0.6645345193088050 0.0000000000000000 0.2465025822472485	0.125259
H	0.8457767589655175 0.0000000000000000 0.2568926794550591	0.090917
H	0.1645345193088049 0.5000000000000000 0.7465025822472483	0.125257
H	0.3457767239655112 0.5000000000000000 0.7568927094550617	0.090917
H	0.3354654806911947 0.0000000000000000 0.2465025822472485	0.125258
H	0.1542232940344831 0.0000000000000000 0.2568926794550591	0.090917
H	0.8354654806911950 0.5000000000000000 0.7465025822472483	0.125255
H	0.6542232410344825 0.5000000000000000 0.7568927094550617	0.090917
H	-0.0000000000000000 0.3354654806911947 0.7534974177527517	0.125259
H	-0.0000000000000000 0.1542232940344831 0.7431072325449406	0.090918
H	0.5000000000000000 0.8354654806911950 0.2534974177527513	0.125257
H	0.5000000000000000 0.6542232410344825 0.2431073205449410	0.090918
H	-0.0000000000000000 0.6645345193088050 0.7534974177527517	0.125258
H	-0.0000000000000000 0.8457767589655175 0.7431072325449406	0.090918
H	0.5000000000000000 0.1645345193088049 0.2534974177527513	0.125256
H	0.5000000000000000 0.3457767239655112 0.2431073205449410	0.090918
H	0.3354654806911947 0.0000000000000000 0.7534974177527517	0.125258
H	0.1542232940344831 0.0000000000000000 0.7431072325449406	0.090917
H	0.8354654806911950 0.5000000000000000 0.2534974177527513	0.125256
H	0.6542232410344825 0.5000000000000000 0.2431073205449410	0.090917
H	0.6645345193088050 0.0000000000000000 0.7534974177527517	0.125259
H	0.8457767589655175 0.0000000000000000 0.7431072325449406	0.090917
H	0.1645345193088049 0.5000000000000000 0.2534974177527513	0.125257
H	0.3457767239655112 0.5000000000000000 0.2431073205449410	0.090917
Co	-0.0000000000000000 0.0000000000000000 0.5000000000000000	0.591926
Co	0.5000000000000000 0.5000000000000000 -0.0000000000000000	0.591925
Zr	-0.0000000000000000 0.0000000000000000 -0.0000000000000000	2.444039
Zr	0.5000000000000000 0.5000000000000000 0.5000000000000000	2.444039
N	-0.0000000000000000 0.1453851112007438 0.5000000000000000	-0.182974
N	0.5000000000000000 0.6453850932007424 -0.0000000000000000	-0.182973
N	-0.0000000000000000 0.8546149067992576 0.5000000000000000	-0.182973
N	0.5000000000000000 0.3546149067992576 -0.0000000000000000	-0.182973
N	0.8546149067992576 0.0000000000000000 0.5000000000000000	-0.182974
N	0.3546149067992576 0.5000000000000000 -0.0000000000000000	-0.182974
N	0.1453851112007438 0.0000000000000000 0.5000000000000000	-0.182974
N	0.6453850932007424 0.5000000000000000 -0.0000000000000000	-0.182973
F	-0.0000000000000000 0.0000000000000000 0.7573641649513947	-0.606952
F	0.5000000000000000 0.5000000000000000 0.2573642539513983	-0.606952
F	-0.0000000000000000 0.0000000000000000 0.2426357610486062	-0.606952
F	0.5000000000000000 0.5000000000000000 0.7426358350486053	-0.606952
F	0.6056233452711572 0.6056233452711572 0.5000000000000000	-0.672297
F	0.6056233452711572 0.3943766547288425 0.5000000000000000	-0.672297
F	0.3943766547288425 0.6056233452711572 0.5000000000000000	-0.672297
F	0.3943766547288425 0.3943766547288425 0.5000000000000000	-0.672297
F	0.1056233622711550 0.1056233622711550 -0.0000000000000000	-0.672297
F	0.8943766547288428 0.8943766547288428 -0.0000000000000000	-0.672297
F	0.8943766547288428 0.1056233622711550 -0.0000000000000000	-0.672297
F	0.1056233622711550 0.8943766547288428 -0.0000000000000000	-0.672297
	  	
