#======================================================================

# CRYSTAL DATA

#----------------------------------------------------------------------

data_VESTA_phase_1


_pd_phase_name                         ZrFSIX_13_Fe_i
_cell_length_a                         15.32158
_cell_length_b                         15.31707
_cell_length_c                         8.15733
_cell_angle_alpha                      90.17735
_cell_angle_beta                       89.65151
_cell_angle_gamma                      89.81895
_symmetry_space_group_name_H-M         P 1
_symmetry_Int_Tables_number            1

loop_
_symmetry_equiv_pos_as_xyz
   x, y, z

loop_
   _atom_site_label
   _atom_site_fract_x
   _atom_site_fract_y
   _atom_site_fract_z
   _atom_site_charge
C	0.5409752217099602 0.6866066586110700 0.8750266837568944	0.103138
C	0.5441436570407263 0.7771938443487502 0.8730619163582117	-0.142687
C	0.4624219520252024 0.3159774716871314 0.8826451446817322	0.103857
C	0.4595936990916225 0.2254517734238320 0.8814240067361374	-0.136341
C	0.8197596471003203 0.9718650025301231 0.3704697484071175	0.106093
C	0.7290525897734391 0.9702425804224994 0.3660255142910934	-0.133510
C	0.3157306195123240 0.5421591285453389 0.8733266594888226	0.102410
C	0.2251643431157485 0.5458222782605869 0.8707973795158654	-0.142140
C	0.1825631750999446 0.9712798500820827 0.3619475792406871	0.101163
C	0.2734323408766041 0.9703992277125151 0.3585754960699017	-0.132689
C	0.6861637230174988 0.4620703794260216 0.8877194276258077	0.103088
C	0.7766422658658899 0.4596535215519412 0.8851256810316094	-0.136334
C	0.4544496918876174 0.6869520729275304 0.1102602662691056	0.104710
C	0.4518493100872202 0.7774348295310570 0.1145090240508399	-0.132772
C	0.5406458142673908 0.3179615093619272 0.1263501281689629	0.102270
C	0.5430675724529975 0.2273805949667579 0.1319972645159042	-0.143244
C	0.1801015134292865 0.0215782843465805 0.6302558160091292	0.107811
C	0.2707349978687320 0.0225975393916109 0.6369976593778859	-0.134332
C	0.6839595536284981 0.5443796586187962 0.1278382485080673	0.105312
C	0.7745541895914686 0.5474709235367692 0.1318260310633121	-0.143178
C	0.8187866786450477 0.0288849387385451 0.6340657063699301	0.100078
C	0.7279482985867336 0.0296629764673839 0.6394228115986886	-0.134099
C	0.3145246182303992 0.4580114133585151 0.1103904561798642	0.103540
C	0.2240094664468854 0.4559783075852028 0.1140067194851422	-0.135802
C	0.9660145270610886 0.8177025807007824 0.6282744882904153	0.107314
C	0.9648827820910425 0.7268762969360000 0.6343966966831882	-0.133992
C	0.9814133262902855 0.1795021703434127 0.6358440888735570	0.101452
C	0.9797059657260179 0.2702821275043621 0.6401893005296748	-0.133368
C	0.0229198127569697 0.8161995895004729 0.3644667697123808	0.102347
C	0.0242419739590002 0.7254048680970095 0.3605660678414512	-0.135252
C	0.0306729874695279 0.1784685700319376 0.3666743623365549	0.109463
C	0.0309671590970150 0.2692849956671612 0.3607162522575095	-0.134791
C	0.0041679470261845 0.3168021675468457 0.4996113414769165	0.043859
C	0.0015491638476232 0.4130626914026930 0.4988939153524437	0.256191
C	0.4983390017989367 0.8230709222474211 0.9944654627895277	0.060401
C	0.4992841475951600 0.9186797848984050 0.9994163459173581	0.245519
C	0.9952956033095960 0.6790554281459042 0.4984556349955458	0.040581
C	0.9971292954651443 0.5826591324949436 0.4989331349045499	0.250072
C	0.5012131888257997 0.1807119986151924 0.0080628987058000	0.060582
C	0.5006320709598522 0.0850029409310069 0.0089235033286629	0.247524
C	0.6814592469454590 0.9995327330406742 0.5030693971579904	0.041301
C	0.5850890555188948 0.9977639618989197 0.5038428285879040	0.249569
C	0.1788839753718381 0.5014457725598045 0.9925771459138504	0.060946
C	0.0832404900706372 0.5023724318108753 0.9953724798227985	0.245711
C	0.3191033321692855 0.9963419164468114 0.4988425564364540	0.043560
C	0.4153874341864146 0.9962076235542977 0.5015449452056441	0.256205
C	0.8213201822933340 0.5037712490810193 0.0089847095023518	0.061345
C	0.9169670389983229 0.5036036544443427 0.0065652329674141	0.246282
H	0.5735009093270870 0.6479819717042034 0.7800544794012603	0.101883
H	0.5807271755212380 0.8111666499011202 0.7777390749080592	0.129654
H	0.4331737159087677 0.3538504455533510 0.7840323430311084	0.102658
H	0.4279238199627975 0.1898445599036183 0.7824712738473695	0.124166
H	0.8575177942422125 0.9490869049106893 0.2651430854184194	0.090659
H	0.6962081704730435 0.9466576578087798 0.2565290142252261	0.122612
H	0.3545313646099909 0.5734577552843035 0.7776350140474507	0.102574
H	0.1915096421020110 0.5815741069309792 0.7745311360862878	0.130122
H	0.1466193827416500 0.9520137986658691 0.2528950791132032	0.087883
H	0.3075282553626924 0.9508982100405622 0.2466581973551565	0.117897
H	0.6483273535915455 0.4311773389194606 0.7909048945019137	0.102663
H	0.8123232406693741 0.4265909990223856 0.7869073159571776	0.123238
H	0.4219517697712232 0.6483009767018408 0.2044288681847084	0.102265
H	0.4173521012299347 0.8122941948165724 0.2119720635862376	0.121333
H	0.5701857248221283 0.3571582335320065 0.2230980172125361	0.102161
H	0.5758098943852390 0.1940576058316108 0.2323534205182028	0.130108
H	0.1418150828724163 0.0420881643144633 0.7364708619422264	0.089459
H	0.3028223646786882 0.0428388080295520 0.7495899813956836	0.121486
H	0.6447600732101237 0.5752701907270572 0.2240256694851432	0.101291
H	0.8077527225423208 0.5821726104385849 0.2301511949536966	0.129484
H	0.8553519061071521 0.0508366737812035 0.7405745577426863	0.088177
H	0.6944139288724924 0.0523962500615553 0.7497283821910621	0.122502
H	0.3526966038689859 0.4262374703912328 0.2057143397408442	0.102608
H	0.1886276656785584 0.4224787128182498 0.2114346562372862	0.122218
H	0.9430493770214937 0.8558346359134039 0.7329206287776169	0.090993
H	0.9414986875363541 0.6944207749750969 0.7448798433278933	0.122190
H	0.9630572313769832 0.1427912137559441 0.7446559824135057	0.084984
H	0.9600775943776583 0.3037370884781215 0.7526238711490884	0.121516
H	0.0445649413799693 0.8527077225575134 0.2574519387032382	0.085922
H	0.0472494956246508 0.6917956002831727 0.2505901083664275	0.121659
H	0.0510719496394173 0.1405421516306315 0.2599553200034260	0.090500
H	0.0504981174397590 0.3019833472463977 0.2478662170083575	0.121224
N	0.9480749996523922 0.5400403360761771 0.6116432193618971	-0.149719
N	0.4217743769479775 0.0457884808501912 0.0081750073257344	-0.147315
N	0.5419584700807845 0.0464071547009466 0.6173915779383990	-0.149311
N	0.9567132185063058 0.4247532591837034 0.0021861880882376	-0.145836
N	0.0478421051383869 0.5418296978513172 0.3854187887848113	-0.147549
N	0.5787278589575856 0.0439930234945868 0.0112105816156532	-0.147206
N	0.9573355082223356 0.5818178939575390 0.0049854079530473	-0.145762
N	0.5447225859789337 0.9462932407413145 0.3924297397295353	-0.146803
N	0.0506359751679291 0.4557278533461937 0.3864747848765790	-0.144909
N	0.5780883376215942 0.9579067765988939 0.0010794333632045	-0.145203
N	0.4585716987184313 0.9452434993463966 0.3918777581636511	-0.144348
N	0.0433954096620765 0.5811300011169416 0.9943050600616374	-0.146044
N	0.9497256287978720 0.4538315139022960 0.6105035245286340	-0.145688
N	0.4211613823074907 0.9595989034150405 0.0078548796655805	-0.143234
N	0.0428684026309985 0.4241230041704266 0.0006734311548174	-0.145084
N	0.4558041859129436 0.0459048011125432 0.6155591566392488	-0.148077
N	0.0051785318751236 0.1334892613433131 0.5011255217076626	-0.241117
N	0.4977308346601529 0.6424501509174625 0.9924266985796903	-0.194538
N	0.9954364423655949 0.8624726586156323 0.4963830363510147	-0.240803
N	0.5015693484274744 0.3612301132192332 0.0033481066752966	-0.197418
N	0.8647506304996855 0.0007590757634744 0.5020207611890483	-0.240070
N	0.3594013949051345 0.4997815492274773 0.9919001354509533	-0.196975
N	0.1358569301428371 0.9958453112426123 0.4955404431133310	-0.240954
N	0.6407125489047024 0.5030665841944236 0.0072553421847383	-0.195468
Fe	0.0002731468757875 0.9979783074095621 0.4985582482173396	0.840891
Fe	0.5000828505777069 0.5019037344183480 0.9987501335848057	0.602733
Zr	0.9995686097150527 0.9969193146704139 0.9985224062170207	2.449291
Zr	0.4995593867004086 0.5030402349204592 0.4986648066427565	2.467338
F	0.9964802308186715 0.0023396267790133 0.2520216081854342	-0.590532
F	0.5065720233904524 0.4985424558509590 0.7531320278662740	-0.574451
F	0.0033230477899032 0.9925654981444951 0.7450804510326727	-0.590129
F	0.4929544495030306 0.5066600363255068 0.2442496582634564	-0.574993
F	0.0940242331723271 0.0899881215808273 0.9961168377447868	-0.658544
F	0.5911650335196017 0.5987813651810098 0.4954578506005097	-0.677434
F	0.9050762052966125 0.9041200620187904 0.0011008007745174	-0.659023
F	0.4084570962721965 0.4071281105753050 0.5032638076473659	-0.679406
F	0.9070117954177316 0.0918748793983803 0.9782614230646219	-0.654455
F	0.4040819338971752 0.5949964953510731 0.5152078907142527	-0.677229
F	0.0929351134948647 0.9028345317313172 0.0191895884570547	-0.654613
F	0.5957454373407515 0.4117799309939679 0.4819119342616502	-0.677260
	  	
