#======================================================================

# CRYSTAL DATA

#----------------------------------------------------------------------

data_VESTA_phase_1


_pd_phase_name                         ZrFSIX_2_Cu
_cell_length_a                         13.72579
_cell_length_b                         13.72579
_cell_length_c                         8.46366
_cell_angle_alpha                      90
_cell_angle_beta                       90
_cell_angle_gamma                      90
_symmetry_space_group_name_H-M         P 1
_symmetry_Int_Tables_number            1

loop_
_symmetry_equiv_pos_as_xyz
   x, y, z

loop_
   _atom_site_label
   _atom_site_fract_x
   _atom_site_fract_y
   _atom_site_fract_z
   _atom_site_charge
C	0.5308137459852359 0.6986695263744933 0.1281092782655404	0.104676
C	0.5310153793657822 0.7997378832311328 0.1334066451863583	-0.159051
C	0.4691863240147629 0.3013304736255066 0.1281092782655404	0.104677
C	0.4689845856342184 0.2002620987688658 0.1334066451863583	-0.159049
C	0.3013304736255066 0.5308137459852359 0.1281092782655404	0.104680
C	0.2002620987688658 0.5310153793657822 0.1334066451863583	-0.159052
C	0.6986695263744933 0.4691863240147629 0.1281092782655404	0.104674
C	0.7997378832311328 0.4689845856342184 0.1334066451863583	-0.159048
C	0.4691863240147629 0.6986695263744933 0.8718907217344595	0.104677
C	0.4689845856342184 0.7997378832311328 0.8665933248136395	-0.159050
C	0.5308137459852359 0.3013304736255066 0.8718907217344595	0.104677
C	0.5310153793657822 0.2002620987688658 0.8665933248136395	-0.159048
C	0.6986695263744933 0.5308137459852359 0.8718907217344595	0.104675
C	0.7997378832311328 0.5310153793657822 0.8665933248136395	-0.159047
C	0.3013304736255066 0.4691863240147629 0.8718907217344595	0.104680
C	0.2002620987688658 0.4689845856342184 0.8665933248136395	-0.159051
C	0.5000000000000000 0.1474551522913492 -0.0000000000000000	0.170223
C	0.5000000000000000 0.0443991461209996 -0.0000000000000000	-0.089234
C	0.5000000000000000 0.8525448477086508 -0.0000000000000000	0.170192
C	0.5000000000000000 0.9556007968790065 -0.0000000000000000	-0.088989
C	0.8525448477086508 0.5000000000000000 -0.0000000000000000	0.170223
C	0.9556007968790065 0.5000000000000000 -0.0000000000000000	-0.089235
C	0.1474551522913492 0.5000000000000000 -0.0000000000000000	0.170192
C	0.0443991461209996 0.5000000000000000 -0.0000000000000000	-0.088988
H	0.5552874977190558 0.6559314631396499 0.2291921647876464	0.098668
H	0.5555030487063262 0.8370735635515729 0.2397566335481558	0.133412
H	0.4447125022809442 0.3440684668603520 0.2291921647876464	0.098671
H	0.4444969862936732 0.1629263664484281 0.2397566335481558	0.133414
H	0.3440684668603520 0.5552874977190558 0.2291921647876464	0.098671
H	0.1629263664484281 0.5555030487063262 0.2397566335481558	0.133413
H	0.6559314631396499 0.4447125022809442 0.2291921647876464	0.098668
H	0.8370735635515729 0.4444969862936732 0.2397566335481558	0.133413
H	0.4447125022809442 0.6559314631396499 0.7708078352123535	0.098668
H	0.4444969862936732 0.8370735635515729 0.7602433964518464	0.133411
H	0.5552874977190558 0.3440684668603520 0.7708078352123535	0.098671
H	0.5555030487063262 0.1629263664484281 0.7602433964518464	0.133412
H	0.6559314631396499 0.5552874977190558 0.7708078352123535	0.098668
H	0.8370735635515729 0.5555030487063262 0.7602433964518464	0.133412
H	0.3440684668603520 0.4447125022809442 0.7708078352123535	0.098671
H	0.1629263664484281 0.4444969862936732 0.7602433964518464	0.133411
Cu	0.5000000000000000 0.5000000000000000 -0.0000000000000000	0.731032
Zr	0.5000000000000000 0.5000000000000000 0.5000000000000000	2.468432
F	0.5000000000000000 0.5000000000000000 0.7431008340015386	-0.647215
F	0.5000000000000000 0.5000000000000000 0.2568991959984572	-0.647215
F	0.6053489665328901 0.6053489665328901 0.5000000000000000	-0.684325
F	0.3946510684671095 0.6053489665328901 0.5000000000000000	-0.684326
F	0.3946510684671095 0.3946510684671095 0.5000000000000000	-0.684327
F	0.6053489665328901 0.3946510684671095 0.5000000000000000	-0.684326
N	0.5000000000000000 0.3510261284287579 -0.0000000000000000	-0.228450
N	0.5000000000000000 0.6489738365712431 -0.0000000000000000	-0.228443
N	0.6489738365712431 0.5000000000000000 -0.0000000000000000	-0.228444
N	0.3510261284287579 0.5000000000000000 -0.0000000000000000	-0.228449
	  	
