#======================================================================

# CRYSTAL DATA

#----------------------------------------------------------------------

data_VESTA_phase_1


_pd_phase_name                         ZrFSIX_2_Cd
_cell_length_a                         14.33618
_cell_length_b                         14.33618
_cell_length_c                         8.57514
_cell_angle_alpha                      90
_cell_angle_beta                       90
_cell_angle_gamma                      90
_symmetry_space_group_name_H-M         P 1
_symmetry_Int_Tables_number            1

loop_
_symmetry_equiv_pos_as_xyz
   x, y, z

loop_
   _atom_site_label
   _atom_site_fract_x
   _atom_site_fract_y
   _atom_site_fract_z
   _atom_site_charge
C	0.5294050521668898 0.7112657889507397 0.1263499904092767	0.102084
C	0.5301110317557358 0.8081213541641553 0.1315193393787225	-0.160804
C	0.4705950178331090 0.2887342110492601 0.1263499904092767	0.102079
C	0.4698889332442650 0.1918786278358429 0.1315193393787225	-0.160800
C	0.2887342110492601 0.5294050521668898 0.1263499904092767	0.102084
C	0.1918786278358429 0.5301110317557358 0.1315193393787225	-0.160804
C	0.7112657889507397 0.4705950178331090 0.1263499904092767	0.102079
C	0.8081213541641553 0.4698889332442650 0.1315193393787225	-0.160800
C	0.4705950178331090 0.7112657889507397 0.8736500095907234	0.102082
C	0.4698889332442650 0.8081213541641553 0.8684806306212747	-0.160802
C	0.5294050521668898 0.2887342110492601 0.8736500095907234	0.102082
C	0.5301110317557358 0.1918786278358429 0.8684806306212747	-0.160801
C	0.7112657889507397 0.5294050521668898 0.8736500095907234	0.102082
C	0.8081213541641553 0.5301110317557358 0.8684806306212747	-0.160801
C	0.2887342110492601 0.4705950178331090 0.8736500095907234	0.102082
C	0.1918786278358429 0.4698889332442650 0.8684806306212747	-0.160802
C	0.5000000000000000 0.1412461810648138 -0.0000000000000000	0.169135
C	0.5000000000000000 0.0425053349038010 -0.0000000000000000	-0.090083
C	0.5000000000000000 0.8587538189351862 -0.0000000000000000	0.169105
C	0.5000000000000000 0.9574946080962050 -0.0000000000000000	-0.089840
C	0.8587538189351862 0.5000000000000000 -0.0000000000000000	0.169135
C	0.9574946080962050 0.5000000000000000 -0.0000000000000000	-0.090084
C	0.1412461810648138 0.5000000000000000 -0.0000000000000000	0.169105
C	0.0425053349038010 0.5000000000000000 -0.0000000000000000	-0.089839
H	0.5526426036099352 0.6704481954806361 0.2267132158829844	0.098329
H	0.5539125101791564 0.8439925618219047 0.2361439819368704	0.130639
H	0.4473573963900647 0.3295517345193647 0.2267132158829844	0.098329
H	0.4460875248208427 0.1560073681780965 0.2361439819368704	0.130642
H	0.3295517345193647 0.5526426036099352 0.2267132158829844	0.098329
H	0.1560073681780965 0.5539125101791564 0.2361439819368704	0.130638
H	0.6704481954806361 0.4473573963900647 0.2267132158829844	0.098329
H	0.8439925618219047 0.4460875248208427 0.2361439819368704	0.130642
H	0.4473573963900647 0.6704481954806361 0.7732867841170159	0.098329
H	0.4460875248208427 0.8439925618219047 0.7638560480631320	0.130640
H	0.5526426036099352 0.3295517345193647 0.7732867841170159	0.098328
H	0.5539125101791564 0.1560073681780965 0.7638560480631320	0.130638
H	0.6704481954806361 0.5526426036099352 0.7732867841170159	0.098328
H	0.8439925618219047 0.5539125101791564 0.7638560480631320	0.130639
H	0.3295517345193647 0.4473573963900647 0.7732867841170159	0.098329
H	0.1560073681780965 0.4460875248208427 0.7638560480631320	0.130640
Cd	0.5000000000000000 0.5000000000000000 -0.0000000000000000	0.841206
Zr	0.5000000000000000 0.5000000000000000 0.5000000000000000	2.482111
F	0.5000000000000000 0.5000000000000000 0.7409385468046966	-0.627170
F	0.5000000000000000 0.5000000000000000 0.2590614831952988	-0.627170
F	0.6005636435938164 0.6005636435938164 0.5000000000000000	-0.693772
F	0.3994363914061825 0.6005636435938164 0.5000000000000000	-0.693772
F	0.3994363914061825 0.3994363914061825 0.5000000000000000	-0.693772
F	0.6005636435938164 0.3994363914061825 0.5000000000000000	-0.693772
N	0.5000000000000000 0.3363205296806567 -0.0000000000000000	-0.243128
N	0.5000000000000000 0.6636794353193440 -0.0000000000000000	-0.243127
N	0.6636794353193440 0.5000000000000000 -0.0000000000000000	-0.243128
N	0.3363205296806567 0.5000000000000000 -0.0000000000000000	-0.243127
	  	
