#======================================================================

# CRYSTAL DATA

#----------------------------------------------------------------------

data_VESTA_phase_1


_pd_phase_name                         ZrFSIX_18_Cd
_cell_length_a                         14.79432
_cell_length_b                         14.02319
_cell_length_c                         8.54148
_cell_angle_alpha                      90
_cell_angle_beta                       96.01984
_cell_angle_gamma                      90
_symmetry_space_group_name_H-M         P 1
_symmetry_Int_Tables_number            1

loop_
_symmetry_equiv_pos_as_xyz
   x, y, z

loop_
   _atom_site_label
   _atom_site_fract_x
   _atom_site_fract_y
   _atom_site_fract_z
   _atom_site_charge
F	0.4092478571233525 0.3585635965426924 0.5243609022548623	-0.664217
F	0.5281172164786003 0.4729661149963316 0.7410720326947083	-0.628812
F	0.3995852473384058 0.5637267628081464 0.5220171717405885	-0.642344
F	0.9092478911233486 0.8585635275426904 0.5243609022548623	-0.664217
F	0.0281172424785950 0.9729660799963314 0.7410720326947083	-0.628812
F	0.8995852813384081 0.0637267288081506 0.5220171717405885	-0.642344
F	0.5907521058766476 0.3585635965426924 0.4756390977451372	-0.664217
F	0.4718827805214032 0.4729661149963316 0.2589279673052912	-0.628812
F	0.6004147486615944 0.5637267628081464 0.4779828292594147	-0.642344
F	0.0907521268766461 0.8585635275426904 0.4756390977451372	-0.664218
F	0.9718826455214025 0.9729660799963314 0.2589279673052912	-0.628812
F	0.1004147236615953 0.0637267288081506 0.4779828292594147	-0.642344
C	0.6797317945123467 0.1618383223327772 0.6664110012566951	-0.424580
C	0.7527192765254336 0.1592278360509793 0.8001737733918161	0.210403
C	0.7556092516836957 0.1977147747342964 0.9521443167997268	-0.150826
C	0.6874949783576040 0.2589191644552929 0.0134351478397565	-0.145179
C	0.6740575432002572 0.3573654576034728 0.9789672667095614	0.216994
C	0.7272994265521526 0.4194524552112026 0.8804982280722182	-0.425898
C	0.8815234448180207 0.1971939070968984 0.1908451344832547	-0.433829
C	0.8423186206951621 0.1733428964991046 0.0277617500013873	0.211594
C	0.6248895078251877 0.2362444518818375 0.1199371139174581	0.212338
C	0.6059606633636233 0.1459445709607947 0.2021745321710524	-0.424832
C	0.1797318445123436 0.6618383743327745 0.6664110012566951	-0.424580
C	0.2527193105254364 0.6592278190509746 0.8001737733918161	0.210403
C	0.2556092176836925 0.6977147407342942 0.9521443167997268	-0.150825
C	0.1874949783576040 0.7589191814552912 0.0134351478397565	-0.145187
C	0.1740575262002524 0.8573654916034755 0.9789672667095614	0.216996
C	0.2272994425521465 0.9194524202112033 0.8804982280722182	-0.425898
C	0.3815233438180154 0.6971938210968982 0.1908451344832547	-0.433829
C	0.3423186886951608 0.6733428964991045 0.0277617500013873	0.211594
C	0.1248894828251892 0.7362443658818377 0.1199371139174581	0.212340
C	0.1059607473636230 0.6459446399607972 0.2021745321710524	-0.424847
C	0.3202682024876568 0.1618383223327772 0.3335889997433086	-0.424589
C	0.2472807164745621 0.1592278360509793 0.1998261466081845	0.210404
C	0.2443907773163035 0.1977147747342964 0.0478556592002782	-0.150833
C	0.3125050176423956 0.2589191644552929 0.9865648431602466	-0.145162
C	0.3259425227997479 0.3573654576034728 0.0210327842904391	0.216987
C	0.2727005884478526 0.4194524552112026 0.1195017879277827	-0.425950
C	0.1184766381819829 0.1971939070968984 0.8091549135167488	-0.433831
C	0.1576813583048396 0.1733428964991046 0.9722382379986122	0.211596
C	0.3751105231748113 0.2362444518818375 0.8800629100825367	0.212337
C	0.3940392626363778 0.1459445709607947 0.7978253888289515	-0.424844
C	0.8202682024876566 0.6618383743327745 0.3335889997433086	-0.424589
C	0.7472807164745623 0.6592278190509746 0.1998261466081845	0.210403
C	0.7443907433163074 0.6977147407342942 0.0478556592002782	-0.150826
C	0.8125050176423957 0.7589191814552912 0.9865648431602466	-0.145179
C	0.8259424557997462 0.8573654916034755 0.0210327842904391	0.216994
C	0.7727005714478472 0.9194524202112033 0.1195017879277827	-0.425897
C	0.6184765541819828 0.6971938210968982 0.8091549135167488	-0.433831
C	0.6576813753048376 0.6733428964991045 0.9722382379986122	0.211595
C	0.8751104891748085 0.7362443658818377 0.8800629100825367	0.212337
C	0.8940393296363797 0.6459446399607972 0.7978253888289515	-0.424830
H	0.7069363883152345 0.1786438586494538 0.5550055169785598	0.152751
H	0.6296247055386964 0.2167496478358274 0.6866297957064095	0.145346
H	0.6446676375541230 0.0926381432154182 0.6522332846793326	0.133083
H	0.6829989911701778 0.4606272408033072 0.7946756534997717	0.139776
H	0.7726687948091948 0.3757177743386307 0.8163860127968079	0.139470
H	0.7688597634256665 0.4702887697717656 0.9552743992651203	0.129673
H	0.8579231734588606 0.0877058141021109 0.6914181036880486	0.286993
H	0.8760617725615001 0.1377998594989988 0.2731602323366720	0.142205
H	0.8449668452549824 0.2580638285161415 0.2348865878761542	0.141197
H	0.9538570595894394 0.2154528444000963 0.1936409822603223	0.138584
H	0.5878293558730688 0.1604860508555015 0.3211865959176252	0.148384
H	0.6658103597119650 0.0994556715601586 0.2116803637341164	0.150586
H	0.5490968385411249 0.1065576227685305 0.1385710733338162	0.131337
H	0.5348761922877860 0.3307173277267020 0.2219484126711068	0.270031
H	0.2069364393152354 0.6786437556494562 0.5550055169785598	0.152751
H	0.1296247895386962 0.7167495788358252 0.6866297957064095	0.145346
H	0.1446676875541196 0.5926380832154132 0.6522332846793326	0.133084
H	0.1829990081701755 0.9606271728033021 0.7946756534997717	0.139776
H	0.2726688288091983 0.8757178083386332 0.8163860127968079	0.139470
H	0.2688597964256661 0.9702887697717653 0.9552743992651203	0.129672
H	0.3579231394588648 0.5877058571021108 0.6914181036880486	0.286993
H	0.3760618395615026 0.6377998254989962 0.2731602323366720	0.142205
H	0.3449667772549839 0.7580638635161407 0.2348865878761542	0.141197
H	0.4538571265894337 0.7154528954000897 0.1936409822603223	0.138585
H	0.0878293478730679 0.6604860678554991 0.3211865959176252	0.148386
H	0.1658103257119628 0.5994556285601584 0.2116803637341164	0.150587
H	0.0490968745411281 0.6065575707685332 0.1385710733338162	0.131341
H	0.0348761772877886 0.8307173277267027 0.2219484126711068	0.270029
H	0.2930635426847701 0.1786438586494538 0.4449945150214355	0.152761
H	0.3703751934612989 0.2167496478358274 0.3133702692935918	0.145342
H	0.3553322914458820 0.0926381432154182 0.3477667153206673	0.133085
H	0.3170010038298254 0.4606272408033072 0.2053243145002330	0.139783
H	0.2273312001908010 0.3757177743386307 0.1836139552031897	0.139478
H	0.2311402325743400 0.4702887697717656 0.0447255737348816	0.129677
H	0.1420768275411360 0.0877058141021109 0.3085818013119473	0.286993
H	0.1239381504384967 0.1377998594989988 0.7268397996633308	0.142206
H	0.1550332187450157 0.2580638285161415 0.7651134121238454	0.141200
H	0.0461428694105657 0.2154528444000963 0.8063590497396731	0.138588
H	0.4121706741269339 0.1604860508555015 0.6788134040823751	0.148383
H	0.3341897022880397 0.0994556715601586 0.7883195882658790	0.150586
H	0.4509031264588758 0.1065576227685305 0.8614289666661870	0.131334
H	0.4651237687122139 0.3307173277267020 0.7780515403288923	0.270027
H	0.7930636096847653 0.6786437556494562 0.4449945150214355	0.152761
H	0.8703752944613036 0.7167495788358252 0.3133702692935918	0.145342
H	0.8553322914458817 0.5926380832154132 0.3477667153206673	0.133085
H	0.8170010038298253 0.9606271728033021 0.2053243145002330	0.139775
H	0.7273312001908012 0.8757178083386332 0.1836139552031897	0.139471
H	0.7311402325743402 0.9702887697717653 0.0447255737348816	0.129670
H	0.6420768185411387 0.5877058571021108 0.3085818013119473	0.286993
H	0.6239382594384955 0.6377998254989962 0.7268397996633308	0.142206
H	0.6550331517450138 0.7580638635161407 0.7651134121238454	0.141200
H	0.5461429054105612 0.7154528954000897 0.8063590497396731	0.138588
H	0.9121706071269315 0.6604860678554991 0.6788134040823751	0.148381
H	0.8341896352880381 0.5994556285601584 0.7883195882658790	0.150584
H	0.9509031264588758 0.6065575707685332 0.8614289666661870	0.131331
H	0.9651237347122186 0.8307173277267027 0.7780515403288923	0.270029
N	0.8331197700575500 0.1149609022473198 0.7917264859026473	-0.149446
N	0.6068538082479648 0.3915877589145483 0.0573620887413147	-0.257198
N	0.8888025780112097 0.1234302992545405 0.9278058749503122	-0.266616
N	0.5780728078042066 0.3171308474392204 0.1397782410624242	-0.143865
N	0.3331197700575501 0.6149608252473243 0.7917264859026473	-0.149446
N	0.1068538752479674 0.8915877589145483 0.0573620887413147	-0.257202
N	0.3888026120112128 0.6234303502545409 0.9278058749503122	-0.266615
N	0.0780727998042058 0.8171308124392216 0.1397782410624242	-0.143847
N	0.1668802119424486 0.1149609022473198 0.2082735620973495	-0.149446
N	0.3931460857520326 0.3915877589145483 0.9426378872586835	-0.257173
N	0.1111973919887876 0.1234302992545405 0.0721941050496855	-0.266615
N	0.4219271891957972 0.3171308474392204 0.8602217749375777	-0.143848
N	0.6668802289424464 0.6149608252473243 0.2082735620973495	-0.149446
N	0.8931461867520384 0.8915877589145483 0.9426378872586836	-0.257198
N	0.6111974169887935 0.6234303502545409 0.0721941050496855	-0.266615
N	0.9219272231957925 0.8171308124392216 0.8602217749375777	-0.143864
Zr	0.4999999979999998 0.4640211012215132 0.5000000000000000	2.443944
Zr	-0.0000000000000000 0.9640211012215135 0.5000000000000000	2.443944
Cd	0.5000000000000000 0.5136699256342964 0.0000000000000000	0.869847
Cd	-0.0000000000000000 0.0136699326343007 0.0000000000000000	0.869851
	  	
