#======================================================================

# CRYSTAL DATA

#----------------------------------------------------------------------

data_VESTA_phase_1


_pd_phase_name                         ZrFSIX_16_Cu_i
_cell_length_a                         24.91451
_cell_length_b                         24.91451
_cell_length_c                         8.26059
_cell_angle_alpha                      90
_cell_angle_beta                       90
_cell_angle_gamma                      90
_symmetry_space_group_name_H-M         P 1
_symmetry_Int_Tables_number            1

loop_
_symmetry_equiv_pos_as_xyz
   x, y, z

loop_
   _atom_site_label
   _atom_site_fract_x
   _atom_site_fract_y
   _atom_site_fract_z
   _atom_site_charge
C	0.4787595857127761 0.3903145330100857 0.3745466522973065	0.101331
C	0.4780403360148168 0.3346337481352756 0.3698583622352301	-0.162502
C	0.9550552854343763 0.6140179746705340 0.9433242432186127	-0.124850
C	0.9551925974600414 0.5582932826413221 0.9441294941133077	-0.123765
C	0.5212404522872199 0.6096855049899106 0.3745466522973065	0.101310
C	0.5219596639851904 0.6653662898647135 0.3698583622352301	-0.162356
C	0.0449446385656246 0.3859819863294664 0.9433242432186127	-0.124850
C	0.0448074215399566 0.4417067553586811 0.9441294941133077	-0.123765
C	0.6096855049899106 0.4787595857127761 0.3745466522973065	0.101309
C	0.6653662898647135 0.4780403360148168 0.3698583622352301	-0.162356
C	0.3859819863294664 0.9550552854343763 0.9433242432186127	-0.124850
C	0.4417067553586811 0.9551925974600414 0.9441294941133077	-0.123765
C	0.3903145330100858 0.5212404522872199 0.3745466522973065	0.101332
C	0.3346337481352756 0.5219596639851904 0.3698583622352301	-0.162502
C	0.6140179746705340 0.0449446385656246 0.9433242432186127	-0.124850
C	0.5582932826413221 0.0448074215399566 0.9441294941133077	-0.123765
C	0.5212404522872199 0.3903145330100858 0.6254533477026935	0.101332
C	0.5219596639851904 0.3346337481352756 0.6301416057647672	-0.162503
C	0.0449446385656246 0.6140179746705340 0.0566757687813883	-0.124855
C	0.0448074215399566 0.5582932826413221 0.0558704818866903	-0.123765
C	0.4787595857127761 0.6096855049899106 0.6254533477026935	0.101309
C	0.4780403360148168 0.6653662898647135 0.6301416057647672	-0.162356
C	0.9550552854343763 0.3859819863294664 0.0566757687813883	-0.124854
C	0.9551925974600414 0.4417067553586811 0.0558704818866903	-0.123764
C	0.3903145330100858 0.4787595857127761 0.6254533477026935	0.101331
C	0.3346337481352756 0.4780403360148168 0.6301416057647672	-0.162503
C	0.6140179746705340 0.9550552854343763 0.0566757687813883	-0.124855
C	0.5582932826413221 0.9551925974600414 0.0558704818866903	-0.123765
C	0.6096855049899106 0.5212404522872199 0.6254533477026935	0.101310
C	0.6653662898647135 0.5219596639851904 0.6301416057647672	-0.162357
C	0.3859819863294664 0.0449446385656246 0.0566757687813883	-0.124855
C	0.4417067553586811 0.0448074215399566 0.0558704818866903	-0.123764
C	0.5449446765656276 0.8859819483294703 0.5566757887813828	-0.124854
C	0.5448074025399586 0.9417067553586811 0.5558704738866896	-0.123765
C	0.0212404062872231 0.1096854479899163 0.1254533477026933	0.101331
C	0.0219596619851831 0.1653662518647246 0.1301416217647687	-0.162502
C	0.4550553614343755 0.1140180226705308 0.5566757887813828	-0.124854
C	0.4551925594600454 0.0582932296413212 0.5558704738866896	-0.123766
C	0.9787595477127801 0.8903144950100894 0.1254533477026933	0.101292
C	0.9780403360148096 0.8346337481352826 0.1301416217647687	-0.162364
C	0.1140180226705308 0.5449446765656276 0.5566757887813828	-0.124854
C	0.0582932296413212 0.5448074025399586 0.5558704738866896	-0.123766
C	0.8903144950100894 0.0212404062872231 0.1254533477026933	0.101291
C	0.8346337481352826 0.0219596619851831 0.1301416217647687	-0.162364
C	0.8859819483294703 0.4550553614343755 0.5566757887813828	-0.124855
C	0.9417067553586811 0.4551925594600454 0.5558704738866896	-0.123765
C	0.1096854479899163 0.9787595477127801 0.1254533477026933	0.101332
C	0.1653662518647246 0.9780403360148096 0.1301416217647687	-0.162502
C	0.4550553614343755 0.8859819483294703 0.4433242432186127	-0.124855
C	0.4551925594600454 0.9417067553586811 0.4441295261133105	-0.123766
C	0.9787595477127801 0.1096854479899163 0.8745466842973021	0.101332
C	0.9780403360148096 0.1653662518647246 0.8698583622352302	-0.162503
C	0.5449446765656276 0.1140180226705308 0.4433242432186127	-0.124854
C	0.5448074025399586 0.0582932296413212 0.4441295261133105	-0.123766
C	0.0212404062872231 0.8903144950100894 0.8745466842973021	0.101291
C	0.0219596619851831 0.8346337481352826 0.8698583622352302	-0.162364
C	0.8859819483294703 0.5449446765656276 0.4433242432186127	-0.124855
C	0.9417067553586811 0.5448074025399586 0.4441295261133105	-0.123766
C	0.1096854479899163 0.0212404062872231 0.8745466842973021	0.101331
C	0.1653662518647246 0.0219596619851831 0.8698583622352302	-0.162502
C	0.1140180226705308 0.4550553614343755 0.4433242432186127	-0.124855
C	0.0582932296413212 0.4551925594600454 0.4441295261133105	-0.123766
C	0.8903144950100894 0.9787595477127801 0.8745466842973021	0.101292
C	0.8346337481352826 0.9780403360148096 0.8698583622352302	-0.162364
C	0.5000000000000000 0.3055010653764217 0.5000000000000000	0.174384
C	0.5000000000000000 0.2486143511506524 0.5000000000000000	-0.113903
C	0.5000000000000000 0.1996870749355629 0.5000000000000000	-0.092088
C	0.5000000000000000 0.1427981455331158 0.5000000000000000	0.124299
C	0.5000000000000000 0.0295201195272432 0.5000000000000000	0.065745
C	0.0000000000000000 0.8055010463764167 0.0000000000000000	0.174312
C	0.0000000000000000 0.7486143311506506 0.0000000000000000	-0.113901
C	0.0000000000000000 0.6996870369355668 0.0000000000000000	-0.092086
C	0.0000000000000000 0.6427981075331125 0.0000000000000000	0.124298
C	0.0000000000000000 0.5295201335272443 0.0000000000000000	0.065740
C	0.5000000000000000 0.6944989156235801 0.5000000000000000	0.174306
C	0.5000000000000000 0.7513857068493455 0.5000000000000000	-0.113900
C	0.5000000000000000 0.8003129250644372 0.5000000000000000	-0.092087
C	0.5000000000000000 0.8572018544668843 0.5000000000000000	0.124299
C	0.5000000000000000 0.9704798664727557 0.5000000000000000	0.065745
C	0.0000000000000000 0.1944989346235783 0.0000000000000000	0.174384
C	0.0000000000000000 0.2513856488493476 0.0000000000000000	-0.113903
C	0.0000000000000000 0.3003129050644355 0.0000000000000000	-0.092087
C	0.0000000000000000 0.3572018544668842 0.0000000000000000	0.124297
C	0.0000000000000000 0.4704799044727586 0.0000000000000000	0.065740
C	0.6944989156235801 0.5000000000000000 0.5000000000000000	0.174306
C	0.7513857068493455 0.5000000000000000 0.5000000000000000	-0.113900
C	0.8003129250644372 0.5000000000000000 0.5000000000000000	-0.092087
C	0.8572018544668843 0.5000000000000000 0.5000000000000000	0.124299
C	0.9704798664727557 0.5000000000000000 0.5000000000000000	0.065745
C	0.1944989346235783 -0.0000000000000000 0.0000000000000000	0.174384
C	0.2513856488493476 -0.0000000000000000 0.0000000000000000	-0.113903
C	0.3003129050644355 -0.0000000000000000 0.0000000000000000	-0.092087
C	0.3572018544668842 -0.0000000000000000 0.0000000000000000	0.124297
C	0.4704799044727586 -0.0000000000000000 0.0000000000000000	0.065740
C	0.3055010653764217 0.5000000000000000 0.5000000000000000	0.174384
C	0.2486143511506524 0.5000000000000000 0.5000000000000000	-0.113903
C	0.1996870749355629 0.5000000000000000 0.5000000000000000	-0.092088
C	0.1427981455331158 0.5000000000000000 0.5000000000000000	0.124299
C	0.0295201195272432 0.5000000000000000 0.5000000000000000	0.065745
C	0.8055010463764167 -0.0000000000000000 0.0000000000000000	0.174312
C	0.7486143311506506 -0.0000000000000000 0.0000000000000000	-0.113901
C	0.6996870369355668 -0.0000000000000000 0.0000000000000000	-0.092086
C	0.6427981075331125 -0.0000000000000000 0.0000000000000000	0.124298
C	0.5295201335272443 -0.0000000000000000 0.0000000000000000	0.065740
H	0.4623970355418752 0.4139404524548822 0.2749131266315443	0.099412
H	0.4607872123996911 0.3139074640094398 0.2660882110739553	0.130398
H	0.9203870790598012 0.6359893004279840 0.8978489329299300	0.112062
H	0.9206402880591407 0.5364360576634710 0.8969910521006141	0.105594
H	0.5376029644581246 0.5860595475451175 0.2749131266315443	0.099407
H	0.5392128256003120 0.6860926119905597 0.2660882110739553	0.130370
H	0.0796129019401937 0.3640106995720159 0.8978489329299300	0.112062
H	0.0793597409408581 0.4635639813365285 0.8969910521006141	0.105593
H	0.5860595475451175 0.4623970355418752 0.2749131266315443	0.099407
H	0.6860926119905597 0.4607872123996911 0.2660882110739553	0.130370
H	0.3640106995720159 0.9203870790598012 0.8978489329299300	0.112062
H	0.4635639813365285 0.9206402880591407 0.8969910521006141	0.105593
H	0.4139404524548822 0.5376029644581246 0.2749131266315443	0.099412
H	0.3139074640094398 0.5392128256003120 0.2660882110739553	0.130398
H	0.6359893004279840 0.0796129019401937 0.8978489329299300	0.112062
H	0.5364360576634710 0.0793597409408581 0.8969910521006141	0.105594
H	0.5376029644581246 0.4139404524548822 0.7250868573684546	0.099412
H	0.5392128256003120 0.3139074640094398 0.7339117889260446	0.130398
H	0.0796129019401937 0.6359893004279840 0.1021510430700680	0.112063
H	0.0793597409408581 0.5364360576634710 0.1030089478993856	0.105592
H	0.4623970355418752 0.5860595475451175 0.7250868573684546	0.099407
H	0.4607872123996911 0.6860926119905597 0.7339117889260446	0.130370
H	0.9203870790598012 0.3640106995720159 0.1021510430700680	0.112063
H	0.9206402880591407 0.4635639813365285 0.1030089478993856	0.105592
H	0.4139404524548822 0.4623970355418752 0.7250868573684546	0.099412
H	0.3139074640094398 0.4607872123996911 0.7339117889260446	0.130398
H	0.6359893004279840 0.9203870790598012 0.1021510430700680	0.112063
H	0.5364360576634710 0.9206402880591407 0.1030089478993856	0.105592
H	0.5860595475451175 0.5376029644581246 0.7250868573684546	0.099407
H	0.6860926119905597 0.5392128256003120 0.7339117889260446	0.130370
H	0.3640106995720159 0.0796129019401937 0.1021510430700680	0.112063
H	0.4635639813365285 0.0793597409408581 0.1030089478993856	0.105592
H	0.5796129209401988 0.8640106995720160 0.6021510350700674	0.112063
H	0.5793597119408593 0.9635639813365287 0.6030089798993885	0.105593
H	0.0376029744581256 0.0860595185451188 0.2250868733684556	0.099412
H	0.0392128306003090 0.1860925549905584 0.2339118209260404	0.130398
H	0.4203871170598115 0.1359893294279829 0.6021510350700674	0.112063
H	0.4206402490591411 0.0364360426634663 0.6030089798993885	0.105593
H	0.9623970355418754 0.9139405294548782 0.2250868733684556	0.099429
H	0.9607871743996880 0.8139075020094426 0.2339118209260404	0.130369
H	0.1359893294279829 0.5796129209401988 0.6021510350700674	0.112063
H	0.0364360426634663 0.5793597119408593 0.6030089798993885	0.105593
H	0.9139405294548782 0.0376029744581256 0.2250868733684556	0.099429
H	0.8139075020094426 0.0392128306003090 0.2339118209260404	0.130369
H	0.8640106995720160 0.4203871170598115 0.6021510350700674	0.112063
H	0.9635639813365287 0.4206402490591411 0.6030089798993885	0.105593
H	0.0860595185451188 0.9623970355418754 0.2250868733684556	0.099412
H	0.1860925549905584 0.9607871743996880 0.2339118209260404	0.130398
H	0.4203871170598115 0.8640106995720160 0.3978489329299300	0.112063
H	0.4206402490591411 0.9635639813365287 0.3969910841006100	0.105593
H	0.9623970355418754 0.0860595185451188 0.7749131106315428	0.099412
H	0.9607871743996880 0.1860925549905584 0.7660881790739599	0.130398
H	0.5796129209401988 0.1359893294279829 0.3978489329299300	0.112063
H	0.5793597119408593 0.0364360426634663 0.3969910841006100	0.105593
H	0.0376029744581256 0.9139405294548782 0.7749131106315428	0.099429
H	0.0392128306003090 0.8139075020094426 0.7660881790739599	0.130369
H	0.8640106995720160 0.5796129209401988 0.3978489329299300	0.112063
H	0.9635639813365287 0.5793597119408593 0.3969910841006100	0.105593
H	0.0860595185451188 0.0376029744581256 0.7749131106315428	0.099412
H	0.1860925549905584 0.0392128306003090 0.7660881790739599	0.130398
H	0.1359893294279829 0.4203871170598115 0.3978489329299300	0.112063
H	0.0364360426634663 0.4206402490591411 0.3969910841006100	0.105593
H	0.9139405294548782 0.9623970355418754 0.7749131106315428	0.099429
H	0.8139075020094426 0.9607871743996880 0.7660881790739599	0.130369
Cu	0.5000000000000000 0.5000000000000000 0.5000000000000000	0.744297
Cu	0.0000000000000000 -0.0000000000000000 0.0000000000000000	0.744294
Zr	0.5000000000000000 0.5000000000000000 0.0000000000000000	2.467778
Zr	0.0000000000000000 -0.0000000000000000 0.5000000000000000	2.467779
F	0.5000000000000000 0.5000000000000000 0.2463536723820337	-0.645527
F	0.0000000000000000 -0.0000000000000000 0.7463536403820384	-0.645521
F	0.5000000000000000 0.5000000000000000 0.7536462636179678	-0.645527
F	0.0000000000000000 -0.0000000000000000 0.2536463276179662	-0.645521
F	0.5581070167133128 0.5581070167133128 0.0000000000000000	-0.684090
F	0.0581069697133122 0.0581069697133122 0.5000000000000000	-0.684091
F	0.4418930592866938 0.4418930592866938 0.0000000000000000	-0.684090
F	0.9418930212866904 0.9418930212866904 0.5000000000000000	-0.684089
F	0.4418930592866938 0.5581070167133128 0.0000000000000000	-0.684090
F	0.9418930212866904 0.0581069697133122 0.5000000000000000	-0.684090
F	0.5581070167133128 0.4418930592866938 0.0000000000000000	-0.684090
F	0.0581069697133122 0.9418930212866904 0.5000000000000000	-0.684090
N	0.5000000000000000 0.4176753394971029 0.5000000000000000	-0.229950
N	0.0000000000000000 0.9176753774971060 0.0000000000000000	-0.230061
N	0.5000000000000000 0.5823246605028971 0.5000000000000000	-0.230063
N	0.0000000000000000 0.0823246695028943 0.0000000000000000	-0.229950
N	0.5823246605028971 0.5000000000000000 0.5000000000000000	-0.230063
N	0.0823246695028943 -0.0000000000000000 0.0000000000000000	-0.229950
N	0.4176753394971029 0.5000000000000000 0.5000000000000000	-0.229950
N	0.9176753774971060 -0.0000000000000000 0.0000000000000000	-0.230061
	  	
