#======================================================================

# CRYSTAL DATA

#----------------------------------------------------------------------

data_VESTA_phase_1


_pd_phase_name                         ZrFSIX_15_Cd_i
_cell_length_a                         30.31727
_cell_length_b                         29.72969
_cell_length_c                         8.55653
_cell_angle_alpha                      90
_cell_angle_beta                       90
_cell_angle_gamma                      90
_symmetry_space_group_name_H-M         P 1
_symmetry_Int_Tables_number            1

loop_
_symmetry_equiv_pos_as_xyz
   x, y, z

loop_
   _atom_site_label
   _atom_site_fract_x
   _atom_site_fract_y
   _atom_site_fract_z
   _atom_site_charge
C	0.9298775701410320 0.0991469620126916 0.8857874305628191	0.106944
C	0.8985873107365940 0.0650807450073309 0.8912985433281323	-0.162175
C	0.7695211408944562 0.9361257958634231 0.8926661619498117	-0.114059
C	0.7360378786650947 0.9044338085754797 0.8924806400459638	-0.113840
C	0.5716279335085996 0.7451456949219887 0.8856969836407349	0.103931
C	0.6047884863755973 0.7773139917803906 0.8910155280633481	-0.163978
C	0.4298776021410277 0.5991469780126929 0.8857874305628191	0.106944
C	0.3985873427365966 0.5650807080073310 0.8912985433281323	-0.162175
C	0.2695210768944578 0.4361258288634223 0.8926661619498117	-0.114059
C	0.2360378466650921 0.4044338745754852 0.8924806400459638	-0.113841
C	0.0716279575086014 0.2451456779219909 0.8856969836407349	0.103931
C	0.1047884623755954 0.2773140247803897 0.8910155280633481	-0.163978
C	0.0701223978589725 0.9008530219873071 0.3857874615628180	0.106944
C	0.1014126652634041 0.9349192919926690 0.3912985753281278	-0.162176
C	0.2304788751055454 0.0638741671365772 0.3926662239498099	-0.114058
C	0.2639621373349063 0.0955661414245161 0.3924806400459635	-0.113841
C	0.4283720344913980 0.2548543550780082 0.3856970146407340	0.103930
C	0.3952115136244027 0.2226859752196103 0.3910155280633487	-0.163977
C	0.5701224298589680 0.4008530549873060 0.3857874615628180	0.106944
C	0.6014126892634060 0.4349192919926685 0.3912985753281278	-0.162176
C	0.7304788591055438 0.5638742041365769 0.3926662239498099	-0.114058
C	0.7639621213349053 0.5955661914245203 0.3924806400459635	-0.113841
C	0.9283720664914004 0.7548543050780113 0.3856970146407340	0.103930
C	0.8952115136244027 0.7226860082196094 0.3910155280633487	-0.163977
C	0.0701223978589725 0.0991469620126916 0.6142125384371819	0.106944
C	0.1014126652634041 0.0650807450073309 0.6087013626718670	-0.162175
C	0.2304788751055454 0.9361257958634231 0.6073338070501892	-0.114058
C	0.2639621373349063 0.9044338085754797 0.6075193909540352	-0.113840
C	0.4283720344913979 0.7451456949219887 0.6143029223592644	0.103931
C	0.3952115136244027 0.7773139917803906 0.6089844409366529	-0.163978
C	0.5701224298589680 0.5991469780126929 0.6142125384371819	0.106944
C	0.6014126892634060 0.5650807080073310 0.6087013626718670	-0.162175
C	0.7304788591055438 0.4361258288634223 0.6073338070501892	-0.114059
C	0.7639621213349053 0.4044338745754852 0.6075193909540352	-0.113840
C	0.9283720664914004 0.2451456779219909 0.6143029223592644	0.103931
C	0.8952115136244027 0.2773140247803897 0.6089844409366529	-0.163977
C	0.9298775701410320 0.9008530219873071 0.1142125544371831	0.106945
C	0.8985873107365940 0.9349192919926690 0.1087014016718667	-0.162176
C	0.7695211408944562 0.0638741671365772 0.1073338070501891	-0.114058
C	0.7360378786650947 0.0955661414245161 0.1075193759540308	-0.113841
C	0.5716279335085996 0.2548543550780082 0.1143029773592653	0.103930
C	0.6047884863755973 0.2226859752196103 0.1089844869366492	-0.163977
C	0.4298776021410277 0.4008530549873060 0.1142125544371831	0.106944
C	0.3985873427365966 0.4349192919926685 0.1087014016718667	-0.162175
C	0.2695210768944578 0.5638742041365769 0.1073338070501891	-0.114058
C	0.2360378466650921 0.5955661914245203 0.1075193759540308	-0.113841
C	0.0716279575086014 0.7548543050780113 0.1143029773592653	0.103930
C	0.1047884623755954 0.7226860082196094 0.1089844869366492	-0.163977
C	0.0701223978589725 0.9008530219873071 0.1142125544371831	0.106945
C	0.1014126652634041 0.9349192919926690 0.1087014016718667	-0.162176
C	0.2304788751055454 0.0638741671365772 0.1073338070501891	-0.114058
C	0.2639621373349063 0.0955661414245161 0.1075193759540308	-0.113841
C	0.4283720344913979 0.2548543550780082 0.1143029773592653	0.103931
C	0.3952115136244027 0.2226859752196103 0.1089844869366492	-0.163977
C	0.5701224298589680 0.4008530549873060 0.1142125544371831	0.106944
C	0.6014126892634060 0.4349192919926685 0.1087014016718667	-0.162176
C	0.7304788591055438 0.5638742041365769 0.1073338070501891	-0.114058
C	0.7639621213349053 0.5955661914245203 0.1075193759540308	-0.113841
C	0.9283720664914004 0.7548543050780113 0.1143029773592653	0.103930
C	0.8952115136244027 0.7226860082196094 0.1089844869366492	-0.163977
C	0.9298775701410320 0.0991469620126916 0.6142125384371819	0.106944
C	0.8985873107365940 0.0650807450073309 0.6087013626718670	-0.162175
C	0.7695211408944562 0.9361257958634231 0.6073338070501892	-0.114058
C	0.7360378786650947 0.9044338085754797 0.6075193909540352	-0.113840
C	0.5716279335085996 0.7451456949219887 0.6143029223592644	0.103931
C	0.6047884863755973 0.7773139917803906 0.6089844409366529	-0.163977
C	0.4298776021410277 0.5991469780126929 0.6142125384371819	0.106944
C	0.3985873427365966 0.5650807080073310 0.6087013626718670	-0.162175
C	0.2695210768944578 0.4361258288634223 0.6073338070501892	-0.114059
C	0.2360378466650921 0.4044338745754852 0.6075193909540352	-0.113841
C	0.0716279575086014 0.2451456779219909 0.6143029223592644	0.103931
C	0.1047884623755954 0.2773140247803897 0.6089844409366529	-0.163977
C	0.9298775701410320 0.9008530219873071 0.3857874615628181	0.106945
C	0.8985873107365940 0.9349192919926690 0.3912985753281278	-0.162176
C	0.7695211408944562 0.0638741671365772 0.3926662239498099	-0.114058
C	0.7360378786650947 0.0955661414245161 0.3924806400459635	-0.113841
C	0.5716279335085996 0.2548543550780082 0.3856970146407340	0.103931
C	0.6047884863755973 0.2226859752196103 0.3910155280633487	-0.163977
C	0.4298776021410277 0.4008530549873060 0.3857874615628180	0.106944
C	0.3985873427365966 0.4349192919926685 0.3912985753281278	-0.162175
C	0.2695210768944578 0.5638742041365769 0.3926662239498099	-0.114058
C	0.2360378466650921 0.5955661914245203 0.3924806400459635	-0.113841
C	0.0716279575086014 0.7548543050780113 0.3856970146407340	0.103930
C	0.1047884623755954 0.7226860082196094 0.3910155280633487	-0.163977
C	0.0701223978589725 0.0991469620126916 0.8857874305628191	0.106944
C	0.1014126652634041 0.0650807450073309 0.8912985433281323	-0.162175
C	0.2304788751055454 0.9361257958634231 0.8926661619498117	-0.114058
C	0.2639621373349063 0.9044338085754797 0.8924806400459638	-0.113840
C	0.4283720344913979 0.7451456949219887 0.8856969836407349	0.103931
C	0.3952115136244027 0.7773139917803906 0.8910155280633481	-0.163977
C	0.5701224298589680 0.5991469780126929 0.8857874305628191	0.106944
C	0.6014126892634060 0.5650807080073310 0.8912985433281323	-0.162175
C	0.7304788591055438 0.4361258288634223 0.8926661619498117	-0.114059
C	0.7639621213349053 0.4044338745754852 0.8924806400459638	-0.113840
C	0.9283720664914004 0.2451456779219909 0.8856969836407349	0.103931
C	0.8952115136244027 0.2773140247803897 0.8910155280633481	-0.163977
C	0.6558816461300758 0.8269892463639871 0.7500000160000013	-0.104714
C	0.8821177138482954 0.0474701733572336 0.7500000160000013	0.165765
C	0.8206114627312239 0.9849718175968255 0.7500000160000013	-0.096061
C	0.6221854861165996 0.7941941802268154 0.7500000160000013	0.170357
C	0.7867538915466262 0.9524015926034894 0.7500000160000013	0.128402
C	0.7188117909345043 0.8879980654378234 0.7500000160000013	0.138339
C	0.6849561467320378 0.8553814962425483 0.7500000160000013	-0.096936
C	0.8495120970150548 0.0135639490253965 0.7500000160000013	-0.109419
C	0.1558816301300747 0.3269892463639869 0.7500000160000013	-0.104714
C	0.3821176178482950 0.5474701853572346 0.7500000160000013	0.165765
C	0.3206114627312244 0.4849718175968257 0.7500000160000013	-0.096061
C	0.1221854781165992 0.2941941802268155 0.7500000160000013	0.170357
C	0.2867538595466308 0.4524015926034894 0.7500000160000013	0.128402
C	0.2188117749345025 0.3879980984378228 0.7500000160000013	0.138339
C	0.1849561137320388 0.3553814632425490 0.7500000160000013	-0.096935
C	0.3495120650150519 0.5135639440253924 0.7500000160000013	-0.109419
C	0.3441183858699265 0.1730107536360131 0.2500000000000000	-0.104714
C	0.1178823581517102 0.9525298146427654 0.2500000000000000	0.165765
C	0.1793885372687757 0.0150281784031741 0.2500000000000000	-0.096060
C	0.3778145138834000 0.2058058037731832 0.2500000000000000	0.170357
C	0.2132461244533750 0.0475983993965099 0.2500000000000000	0.128402
C	0.2811882090654962 0.1120018935621766 0.2500000000000000	0.138339
C	0.3150438862679610 0.1446185037574518 0.2500000000000000	-0.096935
C	0.1504879349849482 0.9864360229746084 0.2500000000000000	-0.109420
C	0.8441183538699242 0.6730107536360129 0.2500000000000000	-0.104714
C	0.6178822861517046 0.4525298476427647 0.2500000000000000	0.165765
C	0.6793885372687761 0.5150281824031745 0.2500000000000000	-0.096060
C	0.8778145138834004 0.7058058197731846 0.2500000000000000	0.170357
C	0.7132461084533738 0.5475984403965097 0.2500000000000000	0.128401
C	0.7811882090654957 0.6120019345621766 0.2500000000000000	0.138339
C	0.8150438532679622 0.6446185037574517 0.2500000000000000	-0.096936
C	0.6504879029849452 0.4864360229746081 0.2500000000000000	-0.109420
C	0.3441183858699265 0.8269892463639871 0.7500000160000013	-0.104714
C	0.1178823581517102 0.0474701733572336 0.7500000160000013	0.165765
C	0.1793885372687757 0.9849718175968255 0.7500000160000013	-0.096061
C	0.3778145138834000 0.7941941802268155 0.7500000160000013	0.170357
C	0.2132461244533750 0.9524015926034894 0.7500000160000013	0.128402
C	0.2811882090654962 0.8879980654378234 0.7500000160000013	0.138339
C	0.3150438862679610 0.8553814962425483 0.7500000160000013	-0.096935
C	0.1504879349849482 0.0135639490253965 0.7500000160000013	-0.109419
C	0.8441183538699242 0.3269892463639869 0.7500000160000013	-0.104714
C	0.6178822861517046 0.5474701853572346 0.7500000160000013	0.165764
C	0.6793885372687761 0.4849718175968257 0.7500000160000013	-0.096061
C	0.8778145138834004 0.2941941802268155 0.7500000160000013	0.170357
C	0.7132461084533738 0.4524015926034894 0.7500000160000013	0.128402
C	0.7811882090654957 0.3879980984378228 0.7500000160000013	0.138339
C	0.8150438532679622 0.3553814632425490 0.7500000160000013	-0.096936
C	0.6504879029849452 0.5135639440253924 0.7500000160000013	-0.109419
C	0.6558816461300758 0.1730107536360131 0.2500000000000000	-0.104714
C	0.8821177138482954 0.9525298146427654 0.2500000000000000	0.165765
C	0.8206114627312239 0.0150281784031741 0.2500000000000000	-0.096060
C	0.6221854861165996 0.2058058037731832 0.2500000000000000	0.170357
C	0.7867538915466262 0.0475983993965099 0.2500000000000000	0.128401
C	0.7188117909345043 0.1120018935621766 0.2500000000000000	0.138339
C	0.6849561467320378 0.1446185037574518 0.2500000000000000	-0.096936
C	0.8495120970150548 0.9864360229746084 0.2500000000000000	-0.109419
C	0.1558816301300747 0.6730107536360129 0.2500000000000000	-0.104714
C	0.3821176178482950 0.4525298476427647 0.2500000000000000	0.165765
C	0.3206114627312244 0.5150281824031745 0.2500000000000000	-0.096060
C	0.1221854781165992 0.7058058197731846 0.2500000000000000	0.170357
C	0.2867538595466308 0.5475984403965097 0.2500000000000000	0.128402
C	0.2188117749345025 0.6120019345621766 0.2500000000000000	0.138339
C	0.1849561137320388 0.6446185037574517 0.2500000000000000	-0.096936
C	0.3495120650150519 0.4864360229746081 0.2500000000000000	-0.109420
H	0.9431110090657171 0.1135414051107475 -0.0066400038667549	0.092591
H	0.8869402327608650 0.0522962067638752 0.0032296519838515	0.122457
H	0.7829289721150536 0.9487800587734905 0.0023416001941821	0.107141
H	0.7226532942704778 0.8917770998701237 0.0020505725619211	0.115232
H	0.5575646809014166 0.7315978511237220 -0.0067085662061751	0.092353
H	0.6171682757672665 0.7892226940044716 0.0029755756144743	0.127656
H	0.4431111050657178 0.6135414211107488 -0.0066400038667549	0.092591
H	0.3869401687608670 0.5522962357638808 0.0032296519838515	0.122457
H	0.2829289721150534 0.4487800587734906 0.0023416001941821	0.107141
H	0.2226533102704790 0.3917771988701285 0.0020505725619211	0.115232
H	0.0575646889014170 0.2315979001237222 -0.0067085662061751	0.092353
H	0.1171682917672608 0.2892226280044732 0.0029755756144743	0.127656
H	0.0568889309342780 0.8864585788892512 0.4933600251332441	0.092591
H	0.1130598152391318 0.9477037642361192 0.5032296869838512	0.122457
H	0.2170710598849490 0.0512199582265143 0.5023416321941849	0.107140
H	0.2773467057295224 0.1082228261298773 0.5020505685619204	0.115232
H	0.4424353190985839 0.2684020828762799 0.4932914337938252	0.092353
H	0.3828317242327335 0.2107773229955261 0.5029756066144730	0.127655
H	0.5568889909342829 0.3864585788892512 0.4933600251332442	0.092589
H	0.6130597672391350 0.4477037972361250 0.5032296869838512	0.122458
H	0.7170710278849464 0.5512199412265095 0.5023416321941849	0.107140
H	0.7773467057295222 0.6082229001298763 0.5020505685619204	0.115232
H	0.9424353190985834 0.7684021488762780 0.4932914337938252	0.092353
H	0.8828317242327335 0.7107773059955284 0.5029756066144730	0.127655
H	0.0568889309342780 0.1135414051107475 0.5066400058667552	0.092591
H	0.1130598152391318 0.0522962067638752 0.4967703130161424	0.122457
H	0.2170710598849490 0.9487800587734905 0.4976583998058181	0.107141
H	0.2773467057295224 0.8917770998701237 0.4979494314380793	0.115232
H	0.4424353190985838 0.7315978511237220 0.5067085982061776	0.092353
H	0.3828317242327335 0.7892226940044716 0.4970244243855257	0.127656
H	0.5568889909342829 0.6135414211107488 0.5066400058667552	0.092591
H	0.6130597672391350 0.5522962357638808 0.4967703130161424	0.122457
H	0.7170710278849464 0.4487800587734906 0.4976583998058181	0.107141
H	0.7773467057295222 0.3917771988701285 0.4979494314380793	0.115232
H	0.9424353190985834 0.2315979001237222 0.5067085982061776	0.092353
H	0.8828317242327335 0.2892226280044732 0.4970244243855257	0.127656
H	0.9431110090657171 0.8864585788892512 0.0066400058667549	0.092591
H	0.8869402327608650 0.9477037642361192 0.9967702820161427	0.122458
H	0.7829289721150536 0.0512199582265143 0.9976583998058177	0.107141
H	0.7226532942704778 0.1082228261298773 0.9979494004380735	0.115232
H	0.5575646809014166 0.2684020828762799 0.0067085662061750	0.092353
H	0.6171682757672665 0.2107773229955261 0.9970244243855260	0.127656
H	0.4431111050657178 0.3864585788892512 0.0066400058667549	0.092589
H	0.3869401687608670 0.4477037972361250 0.9967702820161427	0.122458
H	0.2829289721150534 0.5512199412265095 0.9976583998058177	0.107141
H	0.2226533102704790 0.6082229001298763 0.9979494004380735	0.115232
H	0.0575646889014170 0.7684021488762780 0.0067085662061750	0.092353
H	0.1171682917672608 0.7107773059955284 0.9970244243855260	0.127656
H	0.0568889309342780 0.8864585788892512 0.0066400058667549	0.092591
H	0.1130598152391318 0.9477037642361192 0.9967702820161427	0.122457
H	0.2170710598849490 0.0512199582265143 0.9976583998058177	0.107141
H	0.2773467057295224 0.1082228261298773 0.9979494004380735	0.115232
H	0.4424353190985838 0.2684020828762799 0.0067085662061750	0.092353
H	0.3828317242327335 0.2107773229955261 0.9970244243855260	0.127656
H	0.5568889909342829 0.3864585788892512 0.0066400058667549	0.092589
H	0.6130597672391350 0.4477037972361250 0.9967702820161427	0.122458
H	0.7170710278849464 0.5512199412265095 0.9976583998058177	0.107141
H	0.7773467057295222 0.6082229001298763 0.9979494004380735	0.115232
H	0.9424353190985834 0.7684021488762780 0.0067085662061750	0.092353
H	0.8828317242327335 0.7107773059955284 0.9970244243855260	0.127656
H	0.9431110090657171 0.1135414051107475 0.5066400058667552	0.092591
H	0.8869402327608650 0.0522962067638752 0.4967703130161424	0.122457
H	0.7829289721150536 0.9487800587734905 0.4976583998058181	0.107141
H	0.7226532942704778 0.8917770998701237 0.4979494314380793	0.115232
H	0.5575646809014166 0.7315978511237220 0.5067085982061776	0.092353
H	0.6171682757672665 0.7892226940044716 0.4970244243855257	0.127656
H	0.4431111050657178 0.6135414211107488 0.5066400058667552	0.092591
H	0.3869401687608670 0.5522962357638808 0.4967703130161424	0.122457
H	0.2829289721150534 0.4487800587734906 0.4976583998058181	0.107141
H	0.2226533102704790 0.3917771988701285 0.4979494314380793	0.115232
H	0.0575646889014170 0.2315979001237222 0.5067085982061776	0.092353
H	0.1171682917672608 0.2892226280044732 0.4970244243855257	0.127656
H	0.9431110090657171 0.8864585788892512 0.4933600251332441	0.092591
H	0.8869402327608650 0.9477037642361192 0.5032296869838512	0.122457
H	0.7829289721150536 0.0512199582265143 0.5023416321941849	0.107140
H	0.7226532942704778 0.1082228261298773 0.5020505685619204	0.115232
H	0.5575646809014166 0.2684020828762799 0.4932914337938252	0.092353
H	0.6171682757672665 0.2107773229955261 0.5029756066144730	0.127655
H	0.4431111050657178 0.3864585788892512 0.4933600251332442	0.092588
H	0.3869401687608670 0.4477037972361250 0.5032296869838512	0.122457
H	0.2829289721150534 0.5512199412265095 0.5023416321941849	0.107140
H	0.2226533102704790 0.6082229001298763 0.5020505685619204	0.115232
H	0.0575646889014170 0.7684021488762780 0.4932914337938252	0.092353
H	0.1171682917672608 0.7107773059955284 0.5029756066144730	0.127656
H	0.0568889309342780 0.1135414051107475 -0.0066400038667549	0.092591
H	0.1130598152391318 0.0522962067638752 0.0032296519838515	0.122457
H	0.2170710598849490 0.9487800587734905 0.0023416001941821	0.107141
H	0.2773467057295224 0.8917770998701237 0.0020505725619211	0.115232
H	0.4424353190985839 0.7315978511237220 -0.0067085662061751	0.092353
H	0.3828317242327335 0.7892226940044716 0.0029755756144743	0.127656
H	0.5568889909342829 0.6135414211107488 -0.0066400038667549	0.092591
H	0.6130597672391350 0.5522962357638808 0.0032296519838515	0.122457
H	0.7170710278849464 0.4487800587734906 0.0023416001941821	0.107141
H	0.7773467057295222 0.3917771988701285 0.0020505725619211	0.115232
H	0.9424353190985834 0.2315979001237222 -0.0067085662061751	0.092353
H	0.8828317242327335 0.2892226280044732 0.0029755756144743	0.127656
Cd	0.5000000000000000 0.6730802037471655 0.7500000160000013	0.847901
Cd	-0.0000000000000000 0.1730802207471629 0.7500000160000013	0.847901
Cd	0.5000000000000000 0.3269197962528346 0.2500000000000000	0.847894
Cd	-0.0000000000000000 0.8269197962528345 0.2500000000000000	0.847901
Zr	0.5000000000000000 0.6728565272671340 0.2500000000000000	2.472184
Zr	-0.0000000000000000 0.1728565272671340 0.2500000000000000	2.472184
Zr	0.5000000000000000 0.3271435047328687 0.7500000160000013	2.472131
Zr	-0.0000000000000000 0.8271434727328660 0.7500000160000013	2.472184
F	0.5000000000000000 0.7413552226852561 0.2500000000000000	-0.688428
F	0.5000000000000000 0.6043747649404247 0.2500000000000000	-0.685425
F	-0.0000000000000000 0.2413551736852554 0.2500000000000000	-0.688428
F	-0.0000000000000000 0.1043747489404235 0.2500000000000000	-0.685425
F	0.5000000000000000 0.2586448263147445 0.7500000160000013	-0.688466
F	0.5000000000000000 0.3956252020595760 0.7500000160000013	-0.685357
F	-0.0000000000000000 0.7586447773147439 0.7500000160000013	-0.688428
F	-0.0000000000000000 0.8956252350595753 0.7500000160000013	-0.685425
F	0.5671933877736743 0.6730241058862995 0.2500000000000000	-0.688437
F	0.0671934077736761 0.1730241388862984 0.2500000000000000	-0.688437
F	0.4328065802263231 0.3269758281137023 0.7500000160000013	-0.688432
F	0.9328066122263257 0.8269758941137005 0.7500000160000013	-0.688437
F	0.4328065802263231 0.6730241058862995 0.2500000000000000	-0.688437
F	0.9328066122263257 0.1730241388862984 0.2500000000000000	-0.688437
F	0.5671933877736743 0.3269758281137023 0.7500000160000013	-0.688432
F	0.0671934077736761 0.8269758941137005 0.7500000160000013	-0.688437
F	0.5000000000000000 0.6729239997603501 0.4910502376861590	-0.618566
F	-0.0000000000000000 0.1729240167603479 0.4910502376861590	-0.618566
F	0.5000000000000000 0.3270760332396492 -0.0089497623138409	-0.618554
F	-0.0000000000000000 0.8270760002396499 -0.0089497623138409	-0.618567
F	0.5000000000000000 0.6729239997603501 0.0089497583138406	-0.618566
F	-0.0000000000000000 0.1729240167603479 0.0089497583138406	-0.618566
F	0.5000000000000000 0.3270760332396492 0.5089497303138446	-0.618554
F	-0.0000000000000000 0.8270760002396499 0.5089497303138446	-0.618566
N	0.5552433346251406 0.7291783180331094 0.7500000160000013	-0.246341
N	0.9452877109478860 0.1160535707983760 0.7500000160000013	-0.244010
N	0.0552432986251376 0.2291783020331082 0.7500000160000013	-0.246341
N	0.4452877109478857 0.6160535547983748 0.7500000160000013	-0.244011
N	0.4447567293748577 0.2708216819668902 0.2500000000000000	-0.246340
N	0.0547122970521150 0.8839464452016252 0.2500000000000000	-0.244011
N	0.9447566653748594 0.7708216819668906 0.2500000000000000	-0.246341
N	0.5547122890521140 0.3839464452016252 0.2500000000000000	-0.244009
N	0.4447567293748577 0.7291783180331094 0.7500000160000013	-0.246341
N	0.0547122970521150 0.1160535707983760 0.7500000160000013	-0.244010
N	0.9447566653748594 0.2291783020331082 0.7500000160000013	-0.246341
N	0.5547122890521140 0.6160535547983748 0.7500000160000013	-0.244010
N	0.5552433346251406 0.2708216819668902 0.2500000000000000	-0.246340
N	0.9452877109478860 0.8839464452016252 0.2500000000000000	-0.244010
N	0.0552432986251376 0.7708216819668906 0.2500000000000000	-0.246340
N	0.4452877109478857 0.3839464452016252 0.2500000000000000	-0.244009
	  	
