#======================================================================

# CRYSTAL DATA

#----------------------------------------------------------------------

data_VESTA_phase_1


_pd_phase_name                         ZrFSIX_2_Co
_cell_length_a                         13.91259
_cell_length_b                         13.91259
_cell_length_c                         8.24563
_cell_angle_alpha                      90
_cell_angle_beta                       90
_cell_angle_gamma                      90
_symmetry_space_group_name_H-M         P 1
_symmetry_Int_Tables_number            1

loop_
_symmetry_equiv_pos_as_xyz
   x, y, z

loop_
   _atom_site_label
   _atom_site_fract_x
   _atom_site_fract_y
   _atom_site_fract_z
   _atom_site_charge
C	0.5308703428076528 0.7026501379246204 0.1307659662311268	0.098945
C	0.5316057237123446 0.8023201952998938 0.1363192474264366	-0.163524
C	0.4691297271923456 0.2973498620753796 0.1307659662311268	0.098943
C	0.4683942412876564 0.1976797867001045 0.1363192474264366	-0.163522
C	0.2973498620753796 0.5308703428076528 0.1307659662311268	0.098945
C	0.1976797867001045 0.5316057237123446 0.1363192474264366	-0.163524
C	0.7026501379246204 0.4691297271923456 0.1307659662311268	0.098943
C	0.8023201952998938 0.4683942412876564 0.1363192474264366	-0.163522
C	0.4691297271923456 0.7026501379246204 0.8692340337688732	0.098945
C	0.4683942412876564 0.8023201952998938 0.8636807225735607	-0.163524
C	0.5308703428076528 0.2973498620753796 0.8692340337688732	0.098943
C	0.5316057237123446 0.1976797867001046 0.8636807225735607	-0.163521
C	0.7026501379246204 0.5308703428076528 0.8692340337688732	0.098943
C	0.8023201952998938 0.5316057237123446 0.8636807225735607	-0.163521
C	0.2973498620753796 0.4691297271923456 0.8692340337688732	0.098945
C	0.1976797867001046 0.4683942412876564 0.8636807225735607	-0.163524
C	0.5000000000000000 0.1455028963970904 0.0000000000000000	0.171486
C	0.5000000000000000 0.0438008460289256 0.0000000000000000	-0.091927
C	0.5000000000000000 0.8544971036029098 0.0000000000000000	0.171454
C	0.5000000000000000 0.9561990969710806 0.0000000000000000	-0.091675
C	0.8544971036029098 0.5000000000000000 0.0000000000000000	0.171486
C	0.9561990969710806 0.5000000000000000 0.0000000000000000	-0.091928
C	0.1455028963970904 0.5000000000000000 0.0000000000000000	0.171454
C	0.0438008460289256 0.5000000000000000 0.0000000000000000	-0.091674
H	0.5555932452838566 0.6609023888883936 0.2345717025503087	0.098231
H	0.5564341039660341 0.8390603156817451 0.2450966961020131	0.133503
H	0.4444067547161435 0.3390975411116076 0.2345717025503087	0.098230
H	0.4435659310339647 0.1609396143182561 0.2450966961020131	0.133503
H	0.3390975411116076 0.5555932452838566 0.2345717025503087	0.098231
H	0.1609396143182561 0.5564341039660341 0.2450966961020131	0.133503
H	0.6609023888883936 0.4444067547161435 0.2345717025503087	0.098230
H	0.8390603156817451 0.4435659310339647 0.2450966961020131	0.133503
H	0.4444067547161435 0.6609023888883936 0.7654282974496912	0.098231
H	0.4435659310339648 0.8390603156817451 0.7549033338979888	0.133501
H	0.5555932452838566 0.3390975411116076 0.7654282974496912	0.098230
H	0.5564341039660341 0.1609396143182561 0.7549033338979888	0.133502
H	0.6609023888883936 0.5555932452838566 0.7654282974496912	0.098230
H	0.8390603156817451 0.5564341039660341 0.7549033338979888	0.133502
H	0.3390975411116076 0.4444067547161435 0.7654282974496912	0.098231
H	0.1609396143182561 0.4435659310339648 0.7549033338979888	0.133501
Co	0.5000000000000000 0.5000000000000000 0.0000000000000000	0.604289
Zr	0.5000000000000000 0.5000000000000000 0.5000000000000000	2.459987
F	0.5000000000000000 0.5000000000000000 0.7502045577040091	-0.614426
F	0.5000000000000000 0.5000000000000000 0.2497954722959866	-0.614426
F	0.6035961313822564 0.6035961313822564 0.5000000000000000	-0.678495
F	0.3964039036177430 0.6035961313822564 0.5000000000000000	-0.678495
F	0.3964039036177430 0.3964039036177430 0.5000000000000000	-0.678495
F	0.6035961313822564 0.3964039036177430 0.5000000000000000	-0.678495
N	0.5000000000000000 0.3468185220152967 0.0000000000000000	-0.194338
N	0.5000000000000000 0.6531814429847042 0.0000000000000000	-0.194337
N	0.6531814429847042 0.5000000000000000 0.0000000000000000	-0.194338
N	0.3468185220152967 0.5000000000000000 0.0000000000000000	-0.194337
	  	
