#======================================================================

# CRYSTAL DATA

#----------------------------------------------------------------------

data_VESTA_phase_1


_pd_phase_name                         ZrFSIX_14_Fe_i
_cell_length_a                         13.23879
_cell_length_b                         13.22165
_cell_length_c                         8.25303
_cell_angle_alpha                      87.04146
_cell_angle_beta                       86.78968
_cell_angle_gamma                      88.01932
_symmetry_space_group_name_H-M         P 1
_symmetry_Int_Tables_number            1

loop_
_symmetry_equiv_pos_as_xyz
   x, y, z

loop_
   _atom_site_label
   _atom_site_fract_x
   _atom_site_fract_y
   _atom_site_fract_z
   _atom_site_charge
C	0.5698110326056409 0.2675585680717720 0.3594273846684706	-0.175643
C	0.4652125141045654 0.2722437831554446 0.3638872762998238	0.110134
C	0.9335379693488743 0.2954903793860728 0.4096456561871920	-0.166591
C	0.0380922254359560 0.2883760144286773 0.3945150824524279	0.111236
C	0.2658290262637556 0.5696427923929961 0.3606683978720719	-0.176148
C	0.2698161188113740 0.4648867006015955 0.3660889560539855	0.112304
C	0.3022449142094135 0.9332752583012167 0.4046016223840789	-0.164520
C	0.2949515420039547 0.0379399535161245 0.3904931296921373	0.110088
C	0.9305708073593225 0.2348543720665284 0.1386086146561704	-0.175269
C	0.0351980847739047 0.2304456226303099 0.1335311177957338	0.109654
C	0.5671253328650366 0.1999539847194564 0.0931117592359145	-0.165479
C	0.4625501674742510 0.2074789773931817 0.1074977670295446	0.111373
C	0.2018502575402993 0.5657202302365291 0.0923593693456539	-0.165067
C	0.2086460870733625 0.4610679873452476 0.1077595803163500	0.109616
C	0.2317235456014059 0.9301240185133665 0.1409050115244444	-0.174949
C	0.2275554459126561 0.0348680084987734 0.1365559282668723	0.110515
C	0.4350183385429320 0.7318083203008652 0.6376092796383118	-0.172613
C	0.5401128126690784 0.7293220168771447 0.6321743122152927	0.108818
C	0.0624085472818157 0.7200676681867993 0.5857254640147423	-0.161556
C	0.9574728441341147 0.7232107418722113 0.6017579011073263	0.110873
C	0.7324662025450422 0.4352854060373844 0.6378319720431406	-0.171980
C	0.7308034222230120 0.5405002221236159 0.6319907053791621	0.111205
C	0.7090740463912176 0.0622997521759115 0.5916130584998731	-0.160542
C	0.7123399644482051 0.9572115823133147 0.6073321716317186	0.108567
C	0.0648981190696267 0.7651011204436722 0.8639464933530305	-0.173275
C	0.9597763367310426 0.7671995732085357 0.8697798268835307	0.110994
C	0.4372263679926494 0.7857872011233020 0.9111097590974774	-0.159656
C	0.5421786889498569 0.7822070527614405 0.8954661588862574	0.109647
C	0.7856199913307890 0.4382138294480959 0.9113384727357060	-0.161368
C	0.7828830823373024 0.5432808545699188 0.8953209346440151	0.109364
C	0.7701332718620794 0.0651143600103327 0.8602730726722071	-0.171914
C	0.7722120686174775 0.9599028043331030 0.8658688966081223	0.109245
C	0.6220035809428139 0.2319990167569098 0.2199195386023629	0.193217
C	0.8785284886893765 0.2666470217172534 0.2807819054782835	0.195655
C	0.2324838166730970 0.6212570985750032 0.2196567995195417	0.194765
C	0.2685928415881680 0.8781037603602575 0.2790839331640619	0.193175
C	0.3811111251820947 0.7598302367502733 0.7811814332939708	0.194694
C	0.1186693239967664 0.7417707009004381 0.7178844652394089	0.195672
C	0.7595176346878268 0.3816293816478040 0.7816377125813856	0.194666
C	0.7388300203586756 0.1188257963551206 0.7190136843045872	0.194223
H	0.6104623839440371 0.2880633146632674 0.4631394147211316	0.111009
H	0.4225659644822666 0.2992704655012991 0.4707498831720735	0.088730
H	0.8949197519581713 0.3220548647835293 0.5198465310005984	0.125545
H	0.0830115039016634 0.3099822546829445 0.4928717843890243	0.088277
H	0.2852107713481650 0.6110539999580902 0.4645327582938994	0.111344
H	0.2951996670346841 0.4225267290941469 0.4738511658924144	0.087442
H	0.3328196808216263 0.8946529081030058 0.5114248999083812	0.125816
H	0.3200298883817252 0.0829783380232960 0.4864397979914027	0.089155
H	0.8896882732148266 0.2169443483689480 0.0336093485815796	0.110418
H	0.0777195491134087 0.2060987722664730 0.0247820473060362	0.087993
H	0.6058936551432506 0.1702428473549913 0.9852694581921827	0.125750
H	0.4177358971571998 0.1832991510863373 0.0107667762475822	0.088815
H	0.1741018196104228 0.6039653619831530 0.9831245459231790	0.125582
H	0.1857041359603091 0.4157863734554242 0.0104825516750524	0.089545
H	0.2097876133765943 0.8891620859076108 0.0381629987043043	0.111989
H	0.1996816308167552 0.0775643960451103 0.0307788226619039	0.088384
H	0.3960184806581816 0.7146858464215881 0.5298975591064895	0.113508
H	0.5823284371021105 0.7074465272079709 0.5217108521183941	0.084907
H	0.1001450729981355 0.7008933074265611 0.4704671955836514	0.126050
H	0.9136440764745439 0.7055723447690874 0.5000316395477341	0.085372
H	0.7154450074265911 0.3958342900639464 0.5303269426512045	0.113068
H	0.7096933477601635 0.5825443174608322 0.5213535686769872	0.084267
H	0.6832180358914823 0.0999678396037518 0.4804950310128047	0.126779
H	0.6884129233739062 0.9129991679553793 0.5096402483729252	0.087117
H	0.1041128165571441 0.7789292097664915 0.9729890265606960	0.112512
H	0.9176897406190777 0.7854652511614910 0.9821831636478952	0.083489
H	0.3993860071663989 0.8089694103998484 0.0241045690360211	0.125769
H	0.5859724102513595 0.8032909152399922 -0.0047441444134462	0.086066
H	0.8080556736654985 0.4006279491798030 0.0246085053555218	0.126324
H	0.8040120498806219 0.5874661998172901 -0.0050751298875323	0.085667
H	0.7902109816687440 0.1044514260388837 0.9661387913086127	0.113456
H	0.7966036594968843 0.9177822533886060 0.9745501990845211	0.086748
N	0.7726869879243916 0.2752047240798930 0.2991453311775015	-0.118039
N	0.2775509564219131 0.7721497676339285 0.2965397018511410	-0.118631
N	0.7279052816427170 0.2229406800339234 0.2019880925924133	-0.115868
N	0.2239847197337308 0.7271570251567843 0.2014744030016987	-0.119128
N	0.2252812055722613 0.7345904134873381 0.6928826549006843	-0.115211
N	0.7314280787952664 0.2255842229351992 0.6947837396880877	-0.117027
N	0.2744763279210702 0.7674494225878865 0.8058912524621824	-0.114925
N	0.7664508561201897 0.2749044131299276 0.8061045728557505	-0.117352
N	0.4119795534763506 0.2439357764953357 0.2397609968971398	-0.256415
N	0.0885747086182209 0.2553949557419388 0.2596323571499113	-0.255780
N	0.2430693889313564 0.4110216323883602 0.2414377479573352	-0.255756
N	0.2573602971526623 0.0883206140326664 0.2596117724298702	-0.254839
N	0.5943944250764086 0.7536273398813340 0.7587446599328244	-0.261818
N	0.9052995504663592 0.7471437790049292 0.7411191684102562	-0.262664
N	0.7548382508192834 0.5952190451909717 0.7584956039956283	-0.263526
N	0.7444671226770443 0.9053141577816490 0.7415464994456952	-0.263580
F	0.3594576612746065 0.1356442078593871 0.7515474741551537	-0.664658
F	0.1439278452209790 0.3614907724628516 0.7515496588917466	-0.664411
F	0.3604597858602530 0.3526211135470014 0.7088342852732403	-0.661049
F	0.1422181663951524 0.1451026645610593 0.7902559612274115	-0.660613
F	0.6367244819770493 0.8602183472592064 0.2529862095269702	-0.658460
F	0.8607553710398895 0.6423159703300185 0.2481406509838060	-0.658705
F	0.6436622857188861 0.6429882989184095 0.2898999416554879	-0.652959
F	0.8542347242315019 0.8588528097202427 0.2094955068754513	-0.653243
F	0.2462029817882808 0.2441760527705704 0.4979321393931068	-0.596185
F	0.2561048684241942 0.2533552448818394 0.0028574537116834	-0.596120
F	0.7541426798610490 0.7561310504814204 0.5015607083550964	-0.596695
F	0.7435527908752269 0.7463012920914656 -0.0016646354871623	-0.597136
Zr	0.2516362573415964 0.2484842554928046 0.7504965006121506	2.461330
Zr	0.7485789755555963 0.7512732541494829 0.2501025400641724	2.452315
Fe	0.2503250830664105 0.2496242837660270 0.2504358224844136	0.885085
Fe	0.7497117411353207 0.7503880198609909 0.7499454397315430	0.952037
	  	
