#======================================================================

# CRYSTAL DATA

#----------------------------------------------------------------------

data_VESTA_phase_1


_pd_phase_name                         ZrFSIX_1_Cd
_cell_length_a                         11.74771
_cell_length_b                         11.74771
_cell_length_c                         8.54098
_cell_angle_alpha                      90
_cell_angle_beta                       90
_cell_angle_gamma                      90
_symmetry_space_group_name_H-M         P 1
_symmetry_Int_Tables_number            1

loop_
_symmetry_equiv_pos_as_xyz
   x, y, z

loop_
   _atom_site_label
   _atom_site_fract_x
   _atom_site_fract_y
   _atom_site_fract_z
   _atom_site_charge
C	0.2426798372823737 0.4600712814294056 0.3756498903226758	0.106179
C	0.1244358259115751 0.4594489358863054 0.3708824589695979	-0.168305
C	0.7573202497176299 0.5399287615705942 0.3756498903226758	0.106252
C	0.8755642180884283 0.5405510641136945 0.3708824589695979	-0.168313
C	0.5399287615705942 0.2426798372823737 0.3756498903226758	0.106179
C	0.5405510641136945 0.1244358259115751 0.3708824589695979	-0.168305
C	0.4600712814294056 0.7573202497176299 0.3756498903226758	0.106252
C	0.4594489358863054 0.8755642180884283 0.3708824589695979	-0.168313
C	0.7573202497176299 0.4600712814294056 0.6243500796773217	0.106254
C	0.8755642180884283 0.4594489358863054 0.6291175120303962	-0.168313
C	0.2426798372823737 0.5399287615705942 0.6243500796773217	0.106180
C	0.1244358259115751 0.5405510641136945 0.6291175120303962	-0.168304
C	0.4600712814294056 0.2426798372823737 0.6243500796773217	0.106180
C	0.4594489358863054 0.1244358259115751 0.6291175120303962	-0.168304
C	0.5399287615705942 0.7573202497176299 0.6243500796773217	0.106253
C	0.5405510641136945 0.8755642180884283 0.6291175120303962	-0.168313
C	0.0628520247558238 0.5000000000000000 0.5000000000000000	0.101198
C	0.9371480512441752 0.5000000000000000 0.5000000000000000	0.101203
C	0.5000000000000000 0.0628520247558238 0.5000000000000000	0.101198
C	0.5000000000000000 0.9371480512441752 0.5000000000000000	0.101203
H	0.2926829569640962 0.4280662651063621 0.2772686968705069	0.098133
H	0.0811357108366918 0.4256466155644976 0.2680986764711441	0.125282
H	0.7073170000359039 0.5719337348936380 0.2772686968705069	0.098124
H	0.9188643051633095 0.5743533844355024 0.2680986764711441	0.125283
H	0.5719337348936380 0.2926829569640962 0.2772686968705069	0.098132
H	0.5743533844355024 0.0811357108366918 0.2680986764711441	0.125283
H	0.4280662651063621 0.7073170000359039 0.2772686968705069	0.098124
H	0.4256466155644976 0.9188643051633095 0.2680986764711441	0.125283
H	0.7073170000359039 0.4280662651063621 0.7227312741294941	0.098124
H	0.9188643051633095 0.4256466155644976 0.7319013825288573	0.125282
H	0.2926829569640962 0.5719337348936380 0.7227312741294941	0.098132
H	0.0811357108366918 0.5743533844355024 0.7319013825288573	0.125281
H	0.4280662651063621 0.2926829569640962 0.7227312741294941	0.098133
H	0.4256466155644976 0.0811357108366918 0.7319013825288573	0.125281
H	0.5719337348936380 0.7073170000359039 0.7227312741294941	0.098123
H	0.5743533844355024 0.9188643051633095 0.7319013825288573	0.125282
Cd	0.5000000000000000 0.5000000000000000 0.5000000000000000	0.842127
Zr	0.5000000000000000 0.5000000000000000 -0.0000000000000000	2.486651
F	0.5000000000000000 0.5000000000000000 0.7590404350579654	-0.628043
F	0.5000000000000000 0.5000000000000000 0.2409595649420349	-0.628043
F	0.3769846132146499 0.3769846132146499 -0.0000000000000000	-0.696375
F	0.6230153867853502 0.6230153867853502 -0.0000000000000000	-0.696374
F	0.6230153867853502 0.3769846132146499 -0.0000000000000000	-0.696375
F	0.3769846132146499 0.6230153867853502 -0.0000000000000000	-0.696375
N	0.3006905169836525 0.5000000000000000 0.5000000000000000	-0.245591
N	0.6993095050163496 0.5000000000000000 0.5000000000000000	-0.245677
N	0.5000000000000000 0.3006905169836525 0.5000000000000000	-0.245591
N	0.5000000000000000 0.6993095050163496 0.5000000000000000	-0.245677
	  	
