#======================================================================

# CRYSTAL DATA

#----------------------------------------------------------------------

data_VESTA_phase_1


_pd_phase_name                         ZrFSIX_16_Zn_i
_cell_length_a                         25.16446
_cell_length_b                         25.16446
_cell_length_c                         8.10903
_cell_angle_alpha                      90
_cell_angle_beta                       90
_cell_angle_gamma                      90
_symmetry_space_group_name_H-M         P 1
_symmetry_Int_Tables_number            1

loop_
_symmetry_equiv_pos_as_xyz
   x, y, z

loop_
   _atom_site_label
   _atom_site_fract_x
   _atom_site_fract_y
   _atom_site_fract_z
   _atom_site_charge
C	0.4784617049651868 0.3866893459177400 0.3734345164926111	0.101545
C	0.4777406360163219 0.3315309259153018 0.3683092131675978	-0.167485
C	0.9552748581542890 0.6129462761692740 0.9436952188111185	-0.123775
C	0.9554294003007499 0.5577585411451746 0.9443889785523745	-0.126964
C	0.5215383330348096 0.6133106920822556 0.3734345164926111	0.101545
C	0.5222593639836780 0.6684691120846944 0.3683092131675978	-0.167485
C	0.0447250658457117 0.3870536848307268 0.9436952188111185	-0.123775
C	0.0445706186992486 0.4422414968548286 0.9443889785523745	-0.126964
C	0.6133106920822556 0.4784617049651868 0.3734345164926111	0.101545
C	0.6684691120846944 0.4777406360163219 0.3683092131675978	-0.167485
C	0.3870536848307268 0.9552748581542890 0.9436952188111185	-0.123775
C	0.4422414968548286 0.9554294003007499 0.9443889785523745	-0.126964
C	0.3866893459177400 0.5215383330348096 0.3734345164926111	0.101545
C	0.3315309259153018 0.5222593639836780 0.3683092131675978	-0.167485
C	0.6129462761692740 0.0447250658457117 0.9436952188111185	-0.123775
C	0.5577585411451746 0.0445706186992486 0.9443889785523745	-0.126965
C	0.5215383330348096 0.3866893459177400 0.6265654835073892	0.101545
C	0.5222593639836780 0.3315309259153018 0.6316907548323996	-0.167484
C	0.0447250658457117 0.6129462761692740 0.0563047931888821	-0.123775
C	0.0445706186992486 0.5577585411451746 0.0556109974476234	-0.126965
C	0.4784617049651868 0.6133106920822556 0.6265654835073892	0.101545
C	0.4777406360163219 0.6684691120846944 0.6316907548323996	-0.167484
C	0.9552748581542890 0.3870536848307268 0.0563047931888821	-0.123775
C	0.9554294003007499 0.4422414968548286 0.0556109974476234	-0.126964
C	0.3866893459177400 0.4784617049651868 0.6265654835073892	0.101545
C	0.3315309259153018 0.4777406360163219 0.6316907548323996	-0.167484
C	0.6129462761692740 0.9552748581542890 0.0563047931888821	-0.123775
C	0.5577585411451746 0.9554294003007499 0.0556109974476234	-0.126964
C	0.6133106920822556 0.5215383330348096 0.6265654835073892	0.101545
C	0.6684691120846944 0.5222593639836780 0.6316907548323996	-0.167484
C	0.3870536848307268 0.0447250658457117 0.0563047931888821	-0.123775
C	0.4422414968548286 0.0445706186992486 0.0556109974476234	-0.126964
C	0.5447251038457149 0.8870536468307303 0.5563048131888770	-0.123775
C	0.5445705996992501 0.9422414968548285 0.5556109894476229	-0.126963
C	0.0215382870348126 0.1133106350822620 0.1265654835073888	0.101545
C	0.0222593619836778 0.1684690740846985 0.1316907708324010	-0.167485
C	0.4552749341542882 0.1129463241692705 0.5563048131888770	-0.123827
C	0.4554293623007532 0.0577584881451739 0.5556109894476229	-0.126988
C	0.9784616669651904 0.8866893079177444 0.1265654835073888	0.101545
C	0.9777406360163220 0.8315309259153016 0.1316907708324010	-0.167485
C	0.1129463241692705 0.5447251038457149 0.5563048131888770	-0.123827
C	0.0577584881451739 0.5445705996992501 0.5556109894476229	-0.126988
C	0.8866893079177444 0.0215382870348126 0.1265654835073888	0.101545
C	0.8315309259153016 0.0222593619836778 0.1316907708324010	-0.167485
C	0.8870536468307303 0.4552749341542882 0.5563048131888770	-0.123776
C	0.9422414968548285 0.4554293623007532 0.5556109894476229	-0.126963
C	0.1133106350822620 0.9784616669651904 0.1265654835073888	0.101545
C	0.1684690740846985 0.9777406360163220 0.1316907708324010	-0.167485
C	0.4552749341542882 0.8870536468307303 0.4436952188111189	-0.123775
C	0.4554293623007532 0.9422414968548285 0.4443890105523773	-0.126963
C	0.9784616669651904 0.1133106350822620 0.8734345484926064	0.101545
C	0.9777406360163220 0.1684690740846985 0.8683092131675978	-0.167484
C	0.5447251038457149 0.1129463241692705 0.4436952188111189	-0.123827
C	0.5445705996992501 0.0577584881451739 0.4443890105523773	-0.126988
C	0.0215382870348126 0.8866893079177444 0.8734345484926064	0.101545
C	0.0222593619836778 0.8315309259153016 0.8683092131675978	-0.167484
C	0.8870536468307303 0.5447251038457149 0.4436952188111189	-0.123775
C	0.9422414968548285 0.5445705996992501 0.4443890105523773	-0.126963
C	0.1133106350822620 0.0215382870348126 0.8734345484926064	0.101545
C	0.1684690740846985 0.0222593619836778 0.8683092131675978	-0.167484
C	0.1129463241692705 0.4552749341542882 0.4436952188111189	-0.123827
C	0.0577584881451739 0.4554293623007532 0.4443890105523773	-0.126988
C	0.8866893079177444 0.9784616669651904 0.8734345484926064	0.101545
C	0.8315309259153016 0.9777406360163220 0.8683092131675978	-0.167484
C	0.5000000000000000 0.3026438546940797 0.5000000000000000	0.175911
C	0.5000000000000000 0.2462966661351966 0.5000000000000000	-0.115595
C	0.5000000000000000 0.1978338605145140 0.5000000000000000	-0.092416
C	0.5000000000000000 0.1414880401645414 0.5000000000000000	0.123502
C	0.5000000000000000 0.0292504582524092 0.5000000000000000	0.068867
C	-0.0000000000000000 0.8026438356940745 -0.0000000000000000	0.175911
C	-0.0000000000000000 0.7462966461351954 -0.0000000000000000	-0.115594
C	-0.0000000000000000 0.6978338225145180 -0.0000000000000000	-0.092417
C	-0.0000000000000000 0.6414880021645381 -0.0000000000000000	0.123490
C	-0.0000000000000000 0.5292504722524107 -0.0000000000000000	0.068775
C	0.5000000000000000 0.6973561263059224 0.5000000000000000	0.175911
C	0.5000000000000000 0.7537033918648006 0.5000000000000000	-0.115594
C	0.5000000000000000 0.8021661394854860 0.5000000000000000	-0.092418
C	0.5000000000000000 0.8585119598354588 0.5000000000000000	0.123490
C	0.5000000000000000 0.9707495277475893 0.5000000000000000	0.068771
C	-0.0000000000000000 0.1973561453059202 -0.0000000000000000	0.175911
C	-0.0000000000000000 0.2537033338648036 -0.0000000000000000	-0.115595
C	-0.0000000000000000 0.3021661194854844 -0.0000000000000000	-0.092417
C	-0.0000000000000000 0.3585119598354586 -0.0000000000000000	0.123490
C	-0.0000000000000000 0.4707495657475930 -0.0000000000000000	0.068775
C	0.6973561263059224 0.5000000000000000 0.5000000000000000	0.175911
C	0.7537033918648006 0.5000000000000000 0.5000000000000000	-0.115594
C	0.8021661394854860 0.5000000000000000 0.5000000000000000	-0.092418
C	0.8585119598354588 0.5000000000000000 0.5000000000000000	0.123490
C	0.9707495277475893 0.5000000000000000 0.5000000000000000	0.068771
C	0.1973561453059202 -0.0000000000000000 -0.0000000000000000	0.175911
C	0.2537033338648036 -0.0000000000000000 -0.0000000000000000	-0.115595
C	0.3021661194854844 -0.0000000000000000 -0.0000000000000000	-0.092417
C	0.3585119598354586 -0.0000000000000000 -0.0000000000000000	0.123490
C	0.4707495657475930 -0.0000000000000000 -0.0000000000000000	0.068774
C	0.3026438546940797 0.5000000000000000 0.5000000000000000	0.175911
C	0.2462966661351966 0.5000000000000000 0.5000000000000000	-0.115595
C	0.1978338605145140 0.5000000000000000 0.5000000000000000	-0.092416
C	0.1414880401645414 0.5000000000000000 0.5000000000000000	0.123502
C	0.0292504582524092 0.5000000000000000 0.5000000000000000	0.068867
C	0.8026438356940745 -0.0000000000000000 -0.0000000000000000	0.175911
C	0.7462966461351954 -0.0000000000000000 -0.0000000000000000	-0.115594
C	0.6978338225145180 -0.0000000000000000 -0.0000000000000000	-0.092417
C	0.6414880021645381 -0.0000000000000000 -0.0000000000000000	0.123490
C	0.5292504722524107 -0.0000000000000000 -0.0000000000000000	0.068775
H	0.4616296911932044 0.4099398352841647 0.2724502521276645	0.095337
H	0.4602608584402451 0.3110966702654377 0.2630631643630586	0.128174
H	0.9207415434377644 0.6346949798118213 0.8984881528816435	0.111573
H	0.9210436061058561 0.5361322496031075 0.8972395890408694	0.106602
H	0.5383703088067955 0.5900601647158352 0.2724502521276645	0.095337
H	0.5397391795597579 0.6889034057345611 0.2630631643630586	0.128174
H	0.0792584375622378 0.3653050201881783 0.8984881528816435	0.111573
H	0.0789564228941426 0.4638677893968920 0.8972395890408694	0.106602
H	0.5900601647158352 0.4616296911932044 0.2724502521276645	0.095337
H	0.6889034057345611 0.4602608584402451 0.2630631643630586	0.128174
H	0.3653050201881783 0.9207415434377644 0.8984881528816435	0.111573
H	0.4638677893968920 0.9210436061058561 0.8972395890408694	0.106602
H	0.4099398352841647 0.5383703088067955 0.2724502521276645	0.095337
H	0.3110966702654377 0.5397391795597579 0.2630631643630586	0.128174
H	0.6346949798118213 0.0792584375622378 0.8984881528816435	0.111573
H	0.5361322496031075 0.0789564228941426 0.8972395890408694	0.106602
H	0.5383703088067955 0.4099398352841647 0.7275497318723345	0.095337
H	0.5397391795597579 0.3110966702654377 0.7369368356369417	0.128174
H	0.0792584375622378 0.6346949798118213 0.1015118231183549	0.111573
H	0.0789564228941426 0.5361322496031075 0.1027604109591306	0.106602
H	0.4616296911932044 0.5900601647158352 0.7275497318723345	0.095337
H	0.4602608584402451 0.6889034057345611 0.7369368356369417	0.128174
H	0.9207415434377644 0.3653050201881783 0.1015118231183549	0.111573
H	0.9210436061058561 0.4638677893968920 0.1027604109591306	0.106602
H	0.4099398352841647 0.4616296911932044 0.7275497318723345	0.095337
H	0.3110966702654377 0.4602608584402451 0.7369368356369417	0.128174
H	0.6346949798118213 0.9207415434377644 0.1015118231183549	0.111573
H	0.5361322496031075 0.9210436061058561 0.1027604109591306	0.106602
H	0.5900601647158352 0.5383703088067955 0.7275497318723345	0.095337
H	0.6889034057345611 0.5397391795597579 0.7369368356369417	0.128174
H	0.3653050201881783 0.0792584375622378 0.1015118231183549	0.111573
H	0.4638677893968920 0.0789564228941426 0.1027604109591306	0.106602
H	0.5792584565622356 0.8653050201881787 0.6015118151183538	0.111572
H	0.5789563938941439 0.9638677893968922 0.6027604429591332	0.106602
H	0.0383703188067963 0.0900601357158364 0.2275497478723358	0.095337
H	0.0397391845597547 0.1889033487345600 0.2369368676369367	0.128174
H	0.4207415814377674 0.1346950088118204 0.6015118151183538	0.111579
H	0.4210435671058566 0.0361322346031026 0.6027604429591332	0.106620
H	0.9616296911932045 0.9099399122841605 0.2275497478723358	0.095337
H	0.9602608204402421 0.8110967082654412 0.2369368676369367	0.128174
H	0.1346950088118204 0.5792584565622356 0.6015118151183538	0.111579
H	0.0361322346031026 0.5789563938941439 0.6027604429591332	0.106620
H	0.9099399122841605 0.0383703188067963 0.2275497478723358	0.095337
H	0.8110967082654412 0.0397391845597547 0.2369368676369367	0.128174
H	0.8653050201881787 0.4207415814377674 0.6015118151183538	0.111572
H	0.9638677893968922 0.4210435671058566 0.6027604429591332	0.106602
H	0.0900601357158364 0.9616296911932045 0.2275497478723358	0.095337
H	0.1889033487345600 0.9602608204402421 0.2369368676369367	0.128174
H	0.4207415814377674 0.8653050201881787 0.3984881528816430	0.111572
H	0.4210435671058566 0.9638677893968922 0.3972396210408649	0.106602
H	0.9616296911932045 0.0900601357158364 0.7724502361276628	0.095337
H	0.9602608204402421 0.1889033487345600 0.7630631323630628	0.128173
H	0.5792584565622356 0.1346950088118204 0.3984881528816430	0.111578
H	0.5789563938941439 0.0361322346031026 0.3972396210408649	0.106620
H	0.0383703188067963 0.9099399122841605 0.7724502361276628	0.095337
H	0.0397391845597547 0.8110967082654412 0.7630631323630628	0.128173
H	0.8653050201881787 0.5792584565622356 0.3984881528816430	0.111572
H	0.9638677893968922 0.5789563938941439 0.3972396210408649	0.106602
H	0.0900601357158364 0.0383703188067963 0.7724502361276628	0.095337
H	0.1889033487345600 0.0397391845597547 0.7630631323630628	0.128173
H	0.1346950088118204 0.4207415814377674 0.3984881528816430	0.111578
H	0.0361322346031026 0.4210435671058566 0.3972396210408649	0.106620
H	0.9099399122841605 0.9616296911932045 0.7724502361276628	0.095337
H	0.8110967082654412 0.9602608204402421 0.7630631323630628	0.128173
Zn	0.5000000000000000 0.5000000000000000 0.5000000000000000	0.751380
Zn	-0.0000000000000000 -0.0000000000000000 -0.0000000000000000	0.751380
Zr	0.5000000000000000 0.5000000000000000 -0.0000000000000000	2.469233
Zr	-0.0000000000000000 -0.0000000000000000 0.5000000000000000	2.469233
F	0.5000000000000000 0.5000000000000000 0.2526599588470357	-0.603947
F	-0.0000000000000000 -0.0000000000000000 0.7526599268470402	-0.603947
F	0.5000000000000000 0.5000000000000000 0.7473399771529660	-0.603947
F	-0.0000000000000000 -0.0000000000000000 0.2473400411529643	-0.603947
F	0.5572861637692197 0.5572861637692197 -0.0000000000000000	-0.679960
F	0.0572861167692191 0.0572861167692191 0.5000000000000000	-0.679960
F	0.4427139122307869 0.4427139122307869 -0.0000000000000000	-0.679960
F	0.9427138742307835 0.9427138742307835 0.5000000000000000	-0.679960
F	0.4427139122307869 0.5572861637692197 -0.0000000000000000	-0.679960
F	0.9427138742307835 0.0572861167692191 0.5000000000000000	-0.679960
F	0.5572861637692197 0.4427139122307869 -0.0000000000000000	-0.679960
F	0.0572861167692191 0.9427138742307835 0.5000000000000000	-0.679960
N	0.5000000000000000 0.4139404444658039 0.5000000000000000	-0.233398
N	-0.0000000000000000 0.9139404824658072 -0.0000000000000000	-0.233398
N	0.5000000000000000 0.5860595555341960 0.5000000000000000	-0.233397
N	-0.0000000000000000 0.0860595645341931 -0.0000000000000000	-0.233398
N	0.5860595555341960 0.5000000000000000 0.5000000000000000	-0.233397
N	0.0860595645341931 -0.0000000000000000 -0.0000000000000000	-0.233398
N	0.4139404444658039 0.5000000000000000 0.5000000000000000	-0.233398
N	0.9139404824658072 -0.0000000000000000 -0.0000000000000000	-0.233398
	  	
