#======================================================================

# CRYSTAL DATA

#----------------------------------------------------------------------

data_VESTA_phase_1


_pd_phase_name                         ZrFSIX_18_Zn
_cell_length_a                         14.25940
_cell_length_b                         13.80819
_cell_length_c                         8.42956
_cell_angle_alpha                      90
_cell_angle_beta                       96.43948
_cell_angle_gamma                      90
_symmetry_space_group_name_H-M         P 1
_symmetry_Int_Tables_number            1

loop_
_symmetry_equiv_pos_as_xyz
   x, y, z

loop_
   _atom_site_label
   _atom_site_fract_x
   _atom_site_fract_y
   _atom_site_fract_z
   _atom_site_charge
F	0.4045872945150071 0.3571132039731897 0.5022888337397876	-0.660719
F	0.5201091803238952 0.4797789590612271 0.7467414372598843	-0.615279
F	0.3927178441897806 0.5630154358184120 0.5161982503018092	-0.634437
F	0.9045873285150028 0.8571131349731881 0.5022888337397876	-0.660719
F	0.0201092063238903 0.9797789240612279 0.7467414372598843	-0.615280
F	0.8927178781897833 0.0630154018184161 0.5161982503018092	-0.634437
F	0.5954126684849935 0.3571132039731897 0.4977111662602117	-0.660719
F	0.4798908166761082 0.4797789590612271 0.2532585627401159	-0.615279
F	0.6072821518102192 0.5630154358184120 0.4838017506981945	-0.634437
F	0.0954126894849916 0.8571131349731881 0.4977111662602117	-0.660719
F	0.9798906816761076 0.9797789240612279 0.2532585627401159	-0.615279
F	0.1072821268102209 0.0630154018184161 0.4838017506981945	-0.634436
C	0.6808245337381814 0.1580771602492345 0.6684451415549409	-0.425270
C	0.7553624608361955 0.1543418122171825 0.8067296883726466	0.212278
C	0.7603518822182386 0.1977851842522909 0.9577119299280422	-0.151992
C	0.6900131641891258 0.2615977700245298 0.0161814220633838	-0.143105
C	0.6739729911521845 0.3605659750444191 0.9759147605239940	0.216686
C	0.7289872034123454 0.4231790998521009 0.8758624136635065	-0.427083
C	0.8904469400981624 0.1994283550430611 0.2007387270439435	-0.435503
C	0.8492089888931703 0.1706810961942327 0.0373995377329130	0.218510
C	0.6246848055106725 0.2387773017128014 0.1229799881956989	0.214112
C	0.6060556532099632 0.1477939778392116 0.2088836952116799	-0.425224
C	0.1808245837381787 0.6580772122492318 0.6684451415549409	-0.425265
C	0.2553624948361986 0.6543417952171777 0.8067296883726466	0.212257
C	0.2603518482182363 0.6977851502522877 0.9577119299280422	-0.151987
C	0.1900131641891259 0.7615977870245285 0.0161814220633838	-0.143106
C	0.1739729741521795 0.8605660090444219 0.9759147605239940	0.216685
C	0.2289872194123388 0.9231790648521017 0.8758624136635065	-0.427083
C	0.3904468390981571 0.6994282690430611 0.2007387270439435	-0.435503
C	0.3492090568931684 0.6706810961942329 0.0373995377329130	0.218506
C	0.1246847805106741 0.7387772157128017 0.1229799881956989	0.214111
C	0.1060557372099630 0.6477940468392138 0.2088836952116799	-0.425225
C	0.3191754632618217 0.1580771602492345 0.3315548594450628	-0.425258
C	0.2446375321638001 0.1543418122171825 0.1932702316273543	0.212279
C	0.2396481467817602 0.1977851842522909 0.0422880460719629	-0.151994
C	0.3099868318108735 0.2615977700245298 0.9838185689366193	-0.143104
C	0.3260270748478212 0.3605659750444191 0.0240852904760064	0.216683
C	0.2710128115876599 0.4231790998521009 0.1241376023364947	-0.427082
C	0.1095531429018414 0.1994283550430611 0.7992613209560598	-0.435505
C	0.1507909901068319 0.1706810961942327 0.9626004502670860	0.218511
C	0.3753152254893265 0.2387773017128014 0.8770200358042958	0.214109
C	0.3939442727900379 0.1477939778392116 0.7911162257883241	-0.425222
C	0.8191754632618219 0.6580772122492318 0.3315548594450628	-0.425250
C	0.7446375321638004 0.6543417952171777 0.1932702316273543	0.212234
C	0.7396481127817646 0.6977851502522877 0.0422880460719629	-0.151986
C	0.8099868318108738 0.7615977870245285 0.9838185689366193	-0.143105
C	0.8260270078478190 0.8605660090444219 0.0240852904760065	0.216683
C	0.7710127945876545 0.9231790648521017 0.1241376023364947	-0.427083
C	0.6095530589018411 0.6994282690430611 0.7992613209560598	-0.435505
C	0.6507910071068294 0.6706810961942329 0.9626004502670860	0.218505
C	0.8753151914893237 0.7387772157128017 0.8770200358042958	0.214109
C	0.8939443397900397 0.6477940468392138 0.7911162257883241	-0.425222
H	0.7112948741767928 0.1721041902204537 0.5568093700346318	0.153999
H	0.6307177035293492 0.2164183250352620 0.6842951026873164	0.146048
H	0.6419964487021698 0.0891152947157441 0.6542844398759118	0.131660
H	0.6826062716554842 0.4676463694964083 0.7932343551461035	0.136228
H	0.7730835488548855 0.3784038016931111 0.8066196943399908	0.142263
H	0.7753030355637354 0.4722165302638189 0.9519745875875454	0.129944
H	0.8606923046746060 0.0752442054637179 0.7025451643016890	0.280654
H	0.8814777435278009 0.1429968865203562 0.2895596671964539	0.143833
H	0.8552682223916076 0.2651129678881399 0.2375779953767501	0.138566
H	0.9663339189934198 0.2136401047179754 0.2039061029517928	0.140662
H	0.5850486715437609 0.1638013276980593 0.3274425759108115	0.150383
H	0.6694919515352905 0.1024595690637103 0.2238251505254975	0.152794
H	0.5489691971615142 0.1054277028578969 0.1427979145898282	0.131359
H	0.5233739120923525 0.3327746140972209 0.2102833294139216	0.265322
H	0.2112949251767939 0.6721040872204556 0.5568093700346318	0.153999
H	0.1307177875293490 0.7164182560352600 0.6842951026873164	0.146048
H	0.1419964987021668 0.5891152347157398 0.6542844398759118	0.131660
H	0.1826062886554814 0.9676463014964023 0.7932343551461035	0.136228
H	0.2730835828548890 0.8784038356931135 0.8066196943399908	0.142263
H	0.2753030685637347 0.9722165302638188 0.9519745875875454	0.129943
H	0.3606922706746106 0.5752442484637181 0.7025451643016890	0.280655
H	0.3814778105278034 0.6429968525203527 0.2895596671964539	0.143833
H	0.3552681543916097 0.7651130028881398 0.2375779953767501	0.138566
H	0.4663339859934148 0.7136401557179683 0.2039061029517928	0.140662
H	0.0850486635437604 0.6638013446980571 0.3274425759108115	0.150383
H	0.1694919175352880 0.6024595260637106 0.2238251505254975	0.152794
H	0.0489692331615171 0.6054276508579005 0.1427979145898282	0.131359
H	0.0233738970923543 0.8327746140972211 0.2102833294139216	0.265322
H	0.2887050568232116 0.1721041902204536 0.4431906619653641	0.153999
H	0.3692821954706458 0.2164183250352620 0.3157049623126852	0.146042
H	0.3580034802978349 0.0891152947157441 0.3457155601240882	0.131650
H	0.3173937233445196 0.4676463694964083 0.2067656128539011	0.136227
H	0.2269164461451101 0.3784038016931111 0.1933802736600072	0.142264
H	0.2246969604362713 0.4722165302638189 0.0480253854124557	0.129941
H	0.1393076963253901 0.0752442054637179 0.2974547406983068	0.280655
H	0.1185221794721961 0.1429968865203562 0.7104403648035484	0.143833
H	0.1447318416083904 0.2651129678881399 0.7624220046232495	0.138570
H	0.0336660100065849 0.2136401047179754 0.7960939290482030	0.140664
H	0.4149513584562413 0.1638013276980593 0.6725574240891883	0.150379
H	0.3305081104647145 0.1024595690637103 0.7761748014744988	0.152793
H	0.4510307678384866 0.1054277028578969 0.8572021254101752	0.131352
H	0.4766260489076483 0.3327746140972209 0.7897166235860781	0.265316
H	0.7887051238232070 0.6721040872204556 0.4431906619653641	0.153998
H	0.8692822964706508 0.7164182560352600 0.3157049623126852	0.146042
H	0.8580034802978350 0.5891152347157398 0.3457155601240882	0.131649
H	0.8173937233445190 0.9676463014964023 0.2067656128539011	0.136227
H	0.7269164461451105 0.8784038356931135 0.1933802736600072	0.142264
H	0.7246969604362714 0.9722165302638188 0.0480253854124557	0.129940
H	0.6393076873253934 0.5752442484637181 0.2974547406983068	0.280657
H	0.6185222884721946 0.6429968525203527 0.7104403648035484	0.143833
H	0.6447317746083886 0.7651130028881398 0.7624220046232495	0.138570
H	0.5336660460065809 0.7136401557179683 0.7960939290482030	0.140664
H	0.9149512914562395 0.6638013446980571 0.6725574240891883	0.150379
H	0.8305080434647126 0.6024595260637106 0.7761748014744988	0.152793
H	0.9510307678384865 0.6054276508579005 0.8572021254101752	0.131352
H	0.9766260149076521 0.8327746140972211 0.7897166235860781	0.265316
N	0.8362215427662130 0.1040585310471855 0.8034455204901353	-0.149443
N	0.6021847644998530 0.3948613743241328 0.0506679773635075	-0.246144
N	0.8945908453369557 0.1133223919736587 0.9414185624219861	-0.250637
N	0.5743497328812115 0.3202051682527286 0.1380495004803630	-0.146355
N	0.3362215427662127 0.6040584540471903 0.8034455204901353	-0.149436
N	0.1021848314998552 0.8948613743241327 0.0506679773635075	-0.246144
N	0.3945908793369591 0.6133224429736595 0.9414185624219861	-0.250628
N	0.0743497248812108 0.8202051332527295 0.1380495004803630	-0.146354
N	0.1637784392337860 0.1040585310471855 0.1965545275098616	-0.149439
N	0.3978151295001452 0.3948613743241328 0.9493319986364911	-0.246131
N	0.1054091246630414 0.1133223919736587 0.0585814175780129	-0.250642
N	0.4256502641187920 0.3202051682527286 0.8619505155196382	-0.146359
N	0.6637784562337834 0.6040584540471903 0.1965545275098616	-0.149417
N	0.8978152305001501 0.8948613743241327 0.9493319986364911	-0.246132
N	0.6054091496630475 0.6133224429736595 0.0585814175780129	-0.250626
N	0.9256502981187875 0.8202051332527295 0.8619505155196382	-0.146359
Zr	0.4999999979999998 0.4650162864872892 0.5000000000000000	2.433539
Zr	-0.0000000000000000 0.9650162864872885 0.5000000000000000	2.433539
Zn	0.5000000000000000 0.5098145132897698 0.0000000000000000	0.778254
Zn	-0.0000000000000000 0.0098145202897738 0.0000000000000000	0.778258
	  	
