#======================================================================

# CRYSTAL DATA

#----------------------------------------------------------------------

data_VESTA_phase_1


_pd_phase_name                         ZrFSIX_15_Co_i
_cell_length_a                         29.75002
_cell_length_b                         29.19417
_cell_length_c                         8.29973
_cell_angle_alpha                      90
_cell_angle_beta                       90
_cell_angle_gamma                      90
_symmetry_space_group_name_H-M         P 1
_symmetry_Int_Tables_number            1

loop_
_symmetry_equiv_pos_as_xyz
   x, y, z

loop_
   _atom_site_label
   _atom_site_fract_x
   _atom_site_fract_y
   _atom_site_fract_z
   _atom_site_charge
C	0.9334353719896443 0.1020863344737408 0.8895053264446251	0.107020
C	0.9012719463725315 0.0677512830317945 0.8953222542974210	-0.161843
C	0.7698715945137551 0.9362941726798094 0.8969879200432395	-0.112981
C	0.7357993153474177 0.9039842785942487 0.8967752993670409	-0.114087
C	0.5680966486309661 0.7420193921251120 0.8893982353045463	0.106157
C	0.6018510987339144 0.7747457665355459 0.8950015858585004	-0.166858
C	0.4334354039896393 0.6020863504737419 0.8895053264446251	0.107021
C	0.4012719783725342 0.5677512460317953 0.8953222542974210	-0.161843
C	0.2698715305137567 0.4362942056798082 0.8969879200432395	-0.112981
C	0.2357992833474150 0.4039843445942540 0.8967752993670409	-0.114088
C	0.0680966726309684 0.2420193751251141 0.8893982353045463	0.106132
C	0.1018510747339122 0.2747457995355453 0.8950015858585004	-0.166854
C	0.0665645960103605 0.8979136495262581 0.3895053574446240	0.107021
C	0.0987280296274664 0.9322487539682047 0.3953222862974167	-0.161843
C	0.2301284214862464 0.0637057903201914 0.3969879820432377	-0.112980
C	0.2642007006525836 0.0960156714057473 0.3967752993670409	-0.114089
C	0.4319033193690310 0.2579806578748849 0.3893982663045444	0.106157
C	0.3981489012660861 0.2252542004644545 0.3950015858585010	-0.166858
C	0.5665646280103557 0.3979136825262569 0.3895053574446240	0.107021
C	0.5987280536274685 0.4322487539682054 0.3953222862974167	-0.161844
C	0.7301284054862449 0.5637058273201906 0.3969879820432377	-0.112981
C	0.7642006846525823 0.5960157214057513 0.3967752993670409	-0.114088
C	0.9319033513690339 0.7579806078748880 0.3893982663045444	0.106156
C	0.8981489012660856 0.7252542334644541 0.3950015858585010	-0.166857
C	0.0665645960103605 0.1020863344737408 0.6104946425553759	0.107020
C	0.0987280296274664 0.0677512830317945 0.6046776517025784	-0.161843
C	0.2301284214862464 0.9362941726798094 0.6030120489567615	-0.112980
C	0.2642007006525836 0.9039842785942487 0.6032247316329581	-0.114088
C	0.4319033193690310 0.7420193921251120 0.6106016706954530	0.106157
C	0.3981489012660862 0.7747457665355459 0.6049983831415006	-0.166858
C	0.5665646280103557 0.6020863504737419 0.6104946425553759	0.107021
C	0.5987280536274685 0.5677512460317953 0.6046776517025784	-0.161843
C	0.7301284054862449 0.4362942056798082 0.6030120489567615	-0.112981
C	0.7642006846525823 0.4039843445942540 0.6032247316329581	-0.114087
C	0.9319033513690339 0.2420193751251141 0.6106016706954530	0.106132
C	0.8981489012660856 0.2747457995355453 0.6049983831415006	-0.166854
C	0.9334353719896443 0.8979136495262581 0.1104946585553774	0.107021
C	0.9012719463725315 0.9322487539682047 0.1046776907025778	-0.161844
C	0.7698715945137551 0.0637057903201914 0.1030120489567613	-0.112980
C	0.7357993153474177 0.0960156714057473 0.1032247166329533	-0.114088
C	0.5680966486309661 0.2579806578748849 0.1106017256954547	0.106157
C	0.6018510987339144 0.2252542004644545 0.1049984291414968	-0.166857
C	0.4334354039896393 0.3979136825262569 0.1104946585553774	0.107021
C	0.4012719783725342 0.4322487539682054 0.1046776907025778	-0.161843
C	0.2698715305137567 0.5637058273201906 0.1030120489567613	-0.112980
C	0.2357992833474150 0.5960157214057513 0.1032247166329533	-0.114089
C	0.0680966726309684 0.7579806078748880 0.1106017256954547	0.106156
C	0.1018510747339122 0.7252542334644541 0.1049984291414968	-0.166858
C	0.0665645960103605 0.8979136495262581 0.1104946585553774	0.107021
C	0.0987280296274664 0.9322487539682047 0.1046776907025778	-0.161843
C	0.2301284214862464 0.0637057903201914 0.1030120489567613	-0.112980
C	0.2642007006525836 0.0960156714057473 0.1032247166329533	-0.114089
C	0.4319033193690310 0.2579806578748849 0.1106017256954547	0.106157
C	0.3981489012660862 0.2252542004644545 0.1049984291414968	-0.166858
C	0.5665646280103557 0.3979136825262569 0.1104946585553774	0.107021
C	0.5987280536274685 0.4322487539682054 0.1046776907025778	-0.161844
C	0.7301284054862449 0.5637058273201906 0.1030120489567613	-0.112981
C	0.7642006846525823 0.5960157214057513 0.1032247166329533	-0.114088
C	0.9319033513690339 0.7579806078748880 0.1106017256954547	0.106157
C	0.8981489012660856 0.7252542334644541 0.1049984291414968	-0.166857
C	0.9334353719896443 0.1020863344737408 0.6104946425553759	0.107020
C	0.9012719463725315 0.0677512830317945 0.6046776517025784	-0.161843
C	0.7698715945137551 0.9362941726798094 0.6030120489567615	-0.112981
C	0.7357993153474177 0.9039842785942487 0.6032247316329581	-0.114087
C	0.5680966486309661 0.7420193921251120 0.6106016706954530	0.106157
C	0.6018510987339144 0.7747457665355459 0.6049983831415006	-0.166858
C	0.4334354039896393 0.6020863504737419 0.6104946425553759	0.107020
C	0.4012719783725342 0.5677512460317953 0.6046776517025784	-0.161842
C	0.2698715305137567 0.4362942056798082 0.6030120489567615	-0.112981
C	0.2357992833474150 0.4039843445942540 0.6032247316329581	-0.114088
C	0.0680966726309684 0.2420193751251141 0.6106016706954530	0.106132
C	0.1018510747339122 0.2747457995355453 0.6049983831415006	-0.166854
C	0.9334353719896443 0.8979136495262581 0.3895053574446240	0.107021
C	0.9012719463725315 0.9322487539682047 0.3953222862974167	-0.161844
C	0.7698715945137551 0.0637057903201914 0.3969879820432377	-0.112980
C	0.7357993153474177 0.0960156714057473 0.3967752993670409	-0.114088
C	0.5680966486309661 0.2579806578748849 0.3893982663045444	0.106157
C	0.6018510987339144 0.2252542004644545 0.3950015858585010	-0.166857
C	0.4334354039896393 0.3979136825262569 0.3895053574446240	0.107020
C	0.4012719783725342 0.4322487539682054 0.3953222862974167	-0.161843
C	0.2698715305137567 0.5637058273201906 0.3969879820432377	-0.112980
C	0.2357992833474150 0.5960157214057513 0.3967752993670409	-0.114089
C	0.0680966726309684 0.7579806078748880 0.3893982663045444	0.106157
C	0.1018510747339122 0.7252542334644541 0.3950015858585010	-0.166858
C	0.0665645960103605 0.1020863344737408 0.8895053264446251	0.107020
C	0.0987280296274664 0.0677512830317945 0.8953222542974210	-0.161843
C	0.2301284214862464 0.9362941726798094 0.8969879200432395	-0.112980
C	0.2642007006525836 0.9039842785942487 0.8967752993670409	-0.114089
C	0.4319033193690310 0.7420193921251120 0.8893982353045463	0.106157
C	0.3981489012660861 0.7747457665355459 0.8950015858585004	-0.166858
C	0.5665646280103557 0.6020863504737419 0.8895053264446251	0.107020
C	0.5987280536274685 0.5677512460317953 0.8953222542974210	-0.161843
C	0.7301284054862449 0.4362942056798082 0.8969879200432395	-0.112981
C	0.7642006846525823 0.4039843445942540 0.8967752993670409	-0.114087
C	0.9319033513690339 0.2420193751251141 0.8893982353045463	0.106132
C	0.8981489012660856 0.2747457995355453 0.8950015858585004	-0.166854
C	0.6540396121303601 0.8252651974423858 0.7500000160000013	-0.104392
C	0.8843478708044074 0.0498501561615757 0.7500000160000013	0.164376
C	0.8217734279519321 0.9861559717365687 0.7500000160000013	-0.098271
C	0.6196621149824968 0.7919590438058260 0.7500000160000013	0.170817
C	0.7873655452485259 0.9529209157464281 0.7500000160000013	0.127554
C	0.7182284726298556 0.8872608190857504 0.7500000160000013	0.138482
C	0.6837365098847875 0.8540920301933668 0.7500000160000013	-0.098170
C	0.8511196378681013 0.0153656312868902 0.7500000160000013	-0.107311
C	0.1540395961303588 0.3252651974423857 0.7500000160000013	-0.104379
C	0.3843477748044056 0.5498501681615765 0.7500000160000013	0.164376
C	0.3217734279519321 0.4861559717365683 0.7500000160000013	-0.098271
C	0.1196621069824955 0.2919590438058258 0.7500000160000013	0.170815
C	0.2873655132485299 0.4529209157464278 0.7500000160000013	0.127554
C	0.2182284566298538 0.3872608520857491 0.7500000160000013	0.138468
C	0.1837364768847886 0.3540919971933674 0.7500000160000013	-0.098165
C	0.3511196058680981 0.5153656262868862 0.7500000160000013	-0.107311
C	0.3459604198696429 0.1747348025576142 0.2500000000000000	-0.104379
C	0.1156522011955993 0.9501498318384235 0.2500000000000000	0.164376
C	0.1782265720480680 0.0138440242634314 0.2500000000000000	-0.098270
C	0.3803378850175039 0.2080409401941730 0.2500000000000000	0.170815
C	0.2126344707514758 0.0470790762535715 0.2500000000000000	0.127554
C	0.2817715273701448 0.1127391399142501 0.2500000000000000	0.138468
C	0.3162635231152115 0.1459079698066336 0.2500000000000000	-0.098165
C	0.1488803941319018 0.9846343407131146 0.2500000000000000	-0.107311
C	0.8459603878696399 0.6747348025576142 0.2500000000000000	-0.104392
C	0.6156521291955926 0.4501498648384225 0.2500000000000000	0.164376
C	0.6782265720480680 0.5138440282634313 0.2500000000000000	-0.098270
C	0.8803378850175032 0.7080409561941740 0.2500000000000000	0.170817
C	0.7126344547514741 0.5470791172535711 0.2500000000000000	0.127553
C	0.7817715273701444 0.6127391809142496 0.2500000000000000	0.138483
C	0.8162634901152125 0.6459079698066332 0.2500000000000000	-0.098170
C	0.6488803621318987 0.4846343407131147 0.2500000000000000	-0.107311
C	0.3459604198696429 0.8252651974423858 0.7500000160000013	-0.104379
C	0.1156522011955993 0.0498501561615757 0.7500000160000013	0.164376
C	0.1782265720480680 0.9861559717365687 0.7500000160000013	-0.098271
C	0.3803378850175039 0.7919590438058260 0.7500000160000013	0.170816
C	0.2126344707514758 0.9529209157464281 0.7500000160000013	0.127554
C	0.2817715273701448 0.8872608190857504 0.7500000160000013	0.138467
C	0.3162635231152115 0.8540920301933668 0.7500000160000013	-0.098165
C	0.1488803941319018 0.0153656312868902 0.7500000160000013	-0.107311
C	0.8459603878696399 0.3252651974423857 0.7500000160000013	-0.104392
C	0.6156521291955926 0.5498501681615765 0.7500000160000013	0.164376
C	0.6782265720480679 0.4861559717365683 0.7500000160000013	-0.098271
C	0.8803378850175032 0.2919590438058258 0.7500000160000013	0.170816
C	0.7126344547514741 0.4529209157464278 0.7500000160000013	0.127554
C	0.7817715273701444 0.3872608520857491 0.7500000160000013	0.138482
C	0.8162634901152125 0.3540919971933674 0.7500000160000013	-0.098170
C	0.6488803621318987 0.5153656262868862 0.7500000160000013	-0.107310
C	0.6540396121303601 0.1747348025576142 0.2500000000000000	-0.104392
C	0.8843478708044074 0.9501498318384235 0.2500000000000000	0.164376
C	0.8217734279519320 0.0138440242634314 0.2500000000000000	-0.098270
C	0.6196621149824968 0.2080409401941730 0.2500000000000000	0.170816
C	0.7873655452485259 0.0470790762535715 0.2500000000000000	0.127553
C	0.7182284726298556 0.1127391399142501 0.2500000000000000	0.138483
C	0.6837365098847875 0.1459079698066336 0.2500000000000000	-0.098170
C	0.8511196378681013 0.9846343407131146 0.2500000000000000	-0.107311
C	0.1540395961303588 0.6747348025576142 0.2500000000000000	-0.104379
C	0.3843477748044056 0.4501498648384225 0.2500000000000000	0.164376
C	0.3217734279519321 0.5138440282634313 0.2500000000000000	-0.098270
C	0.1196621069824955 0.7080409561941740 0.2500000000000000	0.170815
C	0.2873655132485299 0.5470791172535711 0.2500000000000000	0.127554
C	0.2182284566298538 0.6127391809142496 0.2500000000000000	0.138468
C	0.1837364768847886 0.6459079698066332 0.2500000000000000	-0.098165
C	0.3511196058680981 0.4846343407131147 0.2500000000000000	-0.107312
H	0.9469037522593465 0.1163665985289766 0.0004370321400093	0.089163
H	0.8893614237005129 0.0549448734419750 0.0109411464231128	0.124117
H	0.7836320353166507 0.9491868656894797 0.0099702485064730	0.105798
H	0.7221646889341342 0.8910246974719412 0.0097057496044316	0.114835
H	0.5540143600639906 0.7284316081461977 0.0004261307247932	0.088801
H	0.6143172087035919 0.7868708026588547 0.0106169911153536	0.129790
H	0.4469038482593467 0.6163666145289776 0.0004370321400093	0.089163
H	0.3893613597005142 0.5549449024419808 0.0109411464231128	0.124117
H	0.2836320353166510 0.4491868656894796 0.0099702485064730	0.105798
H	0.2221647049341350 0.3910247964719456 0.0097057496044316	0.114835
H	0.0540143680639915 0.2284316571461982 0.0004261307247932	0.088806
H	0.1143172247035859 0.2868707366588563 0.0106169911153536	0.129790
H	0.0530961877406489 0.8836333854710224 0.5004370611400083	0.089163
H	0.1106386242994844 0.9450550975580192 0.5109411814231118	0.124117
H	0.2163679966833518 0.0508131513105250 0.5099702805064756	0.105798
H	0.2778353110658660 0.1089752285280601 0.5097057456044317	0.114835
H	0.4459856399360090 0.2715683258538039 0.5004261307247927	0.088801
H	0.3856827912964085 0.2131292143411434 0.5106170221153520	0.129790
H	0.5530962477406535 0.3836333854710221 0.5004370611400083	0.089163
H	0.6106385762994871 0.4450551305580252 0.5109411814231118	0.124117
H	0.7163679646833493 0.5508131343105203 0.5099702805064756	0.105798
H	0.7778353110658658 0.6089753025280588 0.5097057456044317	0.114835
H	0.9459856399360094 0.7715683918538023 0.5004261307247927	0.088801
H	0.8856827912964081 0.7131291973411453 0.5106170221153520	0.129790
H	0.0530961877406489 0.1163665985289766 0.4995629698599907	0.089163
H	0.1106386242994844 0.0549448734419750 0.4890588185768808	0.124117
H	0.2163679966833518 0.9491868656894797 0.4900297514935271	0.105798
H	0.2778353110658660 0.8910246974719412 0.4902942543955688	0.114835
H	0.4459856399360090 0.7284316081461977 0.4995739012752095	0.088801
H	0.3856827912964085 0.7868708026588547 0.4893830088846464	0.129790
H	0.5530962477406535 0.6163666145289776 0.4995629698599907	0.089163
H	0.6106385762994871 0.5549449024419808 0.4890588185768808	0.124117
H	0.7163679646833493 0.4491868656894796 0.4900297514935270	0.105798
H	0.7778353110658658 0.3910247964719456 0.4902942543955688	0.114835
H	0.9459856399360094 0.2284316571461982 0.4995739012752095	0.088806
H	0.8856827912964081 0.2868707366588563 0.4893830088846464	0.129790
H	0.9469037522593465 0.8836333854710224 0.9995629698599907	0.089163
H	0.8893614237005129 0.9450550975580192 0.9890587875768820	0.124117
H	0.7836320353166507 0.0508131513105250 0.9900297514935270	0.105798
H	0.7221646889341342 0.1089752285280601 0.9902942233955622	0.114835
H	0.5540143600639906 0.2715683258538039 0.9995738692752073	0.088801
H	0.6143172087035919 0.2131292143411434 0.9893830088846470	0.129790
H	0.4469038482593467 0.3836333854710221 0.9995629698599907	0.089163
H	0.3893613597005142 0.4450551305580252 0.9890587875768820	0.124117
H	0.2836320353166510 0.5508131343105203 0.9900297514935270	0.105798
H	0.2221647049341350 0.6089753025280588 0.9902942233955622	0.114835
H	0.0540143680639915 0.7715683918538023 0.9995738692752073	0.088801
H	0.1143172247035859 0.7131291973411453 0.9893830088846470	0.129790
H	0.0530961877406489 0.8836333854710224 0.9995629698599907	0.089163
H	0.1106386242994844 0.9450550975580192 0.9890587875768820	0.124117
H	0.2163679966833518 0.0508131513105250 0.9900297514935270	0.105798
H	0.2778353110658660 0.1089752285280601 0.9902942233955622	0.114836
H	0.4459856399360090 0.2715683258538039 0.9995738692752073	0.088801
H	0.3856827912964085 0.2131292143411434 0.9893830088846470	0.129790
H	0.5530962477406535 0.3836333854710221 0.9995629698599907	0.089163
H	0.6106385762994871 0.4450551305580252 0.9890587875768820	0.124117
H	0.7163679646833493 0.5508131343105203 0.9900297514935270	0.105798
H	0.7778353110658658 0.6089753025280588 0.9902942233955622	0.114836
H	0.9459856399360094 0.7715683918538023 0.9995738692752073	0.088801
H	0.8856827912964081 0.7131291973411453 0.9893830088846470	0.129790
H	0.9469037522593465 0.1163665985289766 0.4995629698599907	0.089163
H	0.8893614237005129 0.0549448734419750 0.4890588185768808	0.124117
H	0.7836320353166507 0.9491868656894797 0.4900297514935271	0.105798
H	0.7221646889341342 0.8910246974719412 0.4902942543955688	0.114836
H	0.5540143600639906 0.7284316081461977 0.4995739012752095	0.088801
H	0.6143172087035919 0.7868708026588547 0.4893830088846464	0.129790
H	0.4469038482593467 0.6163666145289776 0.4995629698599907	0.089163
H	0.3893613597005142 0.5549449024419808 0.4890588185768808	0.124117
H	0.2836320353166510 0.4491868656894796 0.4900297514935271	0.105798
H	0.2221647049341350 0.3910247964719456 0.4902942543955688	0.114836
H	0.0540143680639915 0.2284316571461982 0.4995739012752095	0.088806
H	0.1143172247035859 0.2868707366588563 0.4893830088846464	0.129791
H	0.9469037522593465 0.8836333854710224 0.5004370611400083	0.089163
H	0.8893614237005129 0.9450550975580192 0.5109411814231118	0.124117
H	0.7836320353166507 0.0508131513105250 0.5099702805064756	0.105798
H	0.7221646889341342 0.1089752285280601 0.5097057456044317	0.114836
H	0.5540143600639906 0.2715683258538039 0.5004261307247927	0.088801
H	0.6143172087035919 0.2131292143411434 0.5106170221153520	0.129790
H	0.4469038482593467 0.3836333854710221 0.5004370611400083	0.089163
H	0.3893613597005142 0.4450551305580252 0.5109411814231118	0.124117
H	0.2836320353166510 0.5508131343105203 0.5099702805064756	0.105798
H	0.2221647049341350 0.6089753025280588 0.5097057456044317	0.114836
H	0.0540143680639915 0.7715683918538023 0.5004261307247927	0.088801
H	0.1143172247035859 0.7131291973411453 0.5106170221153520	0.129790
H	0.0530961877406489 0.1163665985289766 0.0004370321400093	0.089163
H	0.1106386242994844 0.0549448734419750 0.0109411464231128	0.124117
H	0.2163679966833518 0.9491868656894797 0.0099702485064730	0.105798
H	0.2778353110658660 0.8910246974719412 0.0097057496044316	0.114836
H	0.4459856399360090 0.7284316081461977 0.0004261307247932	0.088801
H	0.3856827912964085 0.7868708026588547 0.0106169911153536	0.129790
H	0.5530962477406535 0.6163666145289776 0.0004370321400093	0.089163
H	0.6106385762994871 0.5549449024419808 0.0109411464231128	0.124117
H	0.7163679646833493 0.4491868656894796 0.0099702485064730	0.105798
H	0.7778353110658658 0.3910247964719456 0.0097057496044316	0.114836
H	0.9459856399360094 0.2284316571461982 0.0004261307247932	0.088806
H	0.8856827912964081 0.2868707366588563 0.0106169911153536	0.129790
Co	0.5000000000000000 0.6727740158304117 0.7500000160000013	0.612363
Co	-0.0000000000000000 0.1727740328304096 0.7500000160000013	0.612456
Co	0.5000000000000000 0.3272259841695884 0.2500000000000000	0.612363
Co	-0.0000000000000000 0.8272259841695883 0.2500000000000000	0.612363
Zr	0.5000000000000000 0.6725352952600391 0.2500000000000000	2.452353
Zr	-0.0000000000000000 0.1725352952600391 0.2500000000000000	2.452356
Zr	0.5000000000000000 0.3274647367399636 0.7500000160000013	2.452353
Zr	-0.0000000000000000 0.8274647047399609 0.7500000160000013	2.452353
F	0.5000000000000000 0.7419560739444221 0.2500000000000000	-0.672228
F	0.5000000000000000 0.6031090711609278 0.2500000000000000	-0.668389
F	-0.0000000000000000 0.2419560249444218 0.2500000000000000	-0.672228
F	-0.0000000000000000 0.1031090551609264 0.2500000000000000	-0.668389
F	0.5000000000000000 0.2580439750555782 0.7500000160000013	-0.672228
F	0.5000000000000000 0.3968908958390731 0.7500000160000013	-0.668390
F	-0.0000000000000000 0.7580439260555779 0.7500000160000013	-0.672228
F	-0.0000000000000000 0.8968909288390722 0.7500000160000013	-0.668389
F	0.5681107190705429 0.6726609030997670 0.2500000000000000	-0.673100
F	0.0681107390705446 0.1726609360997664 0.2500000000000000	-0.673100
F	0.4318892489294544 0.3273390309002347 0.7500000160000013	-0.673100
F	0.9318892809294571 0.8273390969002330 0.7500000160000013	-0.673100
F	0.4318892489294544 0.6726609030997670 0.2500000000000000	-0.673100
F	0.9318892809294571 0.1726609360997664 0.2500000000000000	-0.673100
F	0.5681107190705429 0.3273390309002347 0.7500000160000013	-0.673100
F	0.0681107390705446 0.8273390969002330 0.7500000160000013	-0.673100
F	0.5000000000000000 0.6727417423971278 0.5024540530075411	-0.607722
F	-0.0000000000000000 0.1727417593971258 0.5024540530075411	-0.607732
F	0.5000000000000000 0.3272582906028712 0.0024540530075413	-0.607722
F	-0.0000000000000000 0.8272582576028722 0.0024540530075415	-0.607722
F	0.5000000000000000 0.6727417423971278 -0.0024540570075417	-0.607722
F	-0.0000000000000000 0.1727417593971258 -0.0024540570075417	-0.607732
F	0.5000000000000000 0.3272582906028712 0.4975459149924631	-0.607722
F	-0.0000000000000000 0.8272582576028722 0.4975459149924631	-0.607722
N	0.5511655766138439 0.7255395019006899 0.7500000160000013	-0.199129
N	0.9495330635760071 0.1193369993129765 0.7500000160000013	-0.195020
N	0.0511655406138405 0.2255394859006887 0.7500000160000013	-0.199125
N	0.4495330635760072 0.6193369833129752 0.7500000160000013	-0.195012
N	0.4488344873861550 0.2744604980993099 0.2500000000000000	-0.199129
N	0.0504669444239935 0.8806630166870248 0.2500000000000000	-0.195012
N	0.9488344233861561 0.7744604980993101 0.2500000000000000	-0.199129
N	0.5504669364239929 0.3806630166870248 0.2500000000000000	-0.195012
N	0.4488344873861550 0.7255395019006899 0.7500000160000013	-0.199129
N	0.0504669444239935 0.1193369993129765 0.7500000160000013	-0.195020
N	0.9488344233861561 0.2255394859006887 0.7500000160000013	-0.199125
N	0.5504669364239929 0.6193369833129752 0.7500000160000013	-0.195012
N	0.5511655766138439 0.2744604980993099 0.2500000000000000	-0.199129
N	0.9495330635760071 0.8806630166870248 0.2500000000000000	-0.195012
N	0.0511655406138405 0.7744604980993101 0.2500000000000000	-0.199129
N	0.4495330635760072 0.3806630166870248 0.2500000000000000	-0.195012
	  	
