data_image0
_cell_length_a       14.366
_cell_length_b       15.189
_cell_length_c       18.833
_cell_angle_alpha    67.91
_cell_angle_beta     82.666
_cell_angle_gamma    81.065

_symmetry_space_group_name_H-M    "P 1"
_symmetry_int_tables_number       1

loop_
  _symmetry_equiv_pos_as_xyz
  'x, y, z'

loop_
  _atom_site_label
  _atom_site_occupancy
  _atom_site_fract_x
  _atom_site_fract_y
  _atom_site_fract_z
  _atom_site_thermal_displace_type
  _atom_site_B_iso_or_equiv
  _atom_site_type_symbol
  C1       1.0000 0.60800  0.03710  0.22840  Biso   1.000  C
  H1       1.0000 0.62410  0.06550  0.17610  Biso   1.000  H
  C2       1.0000 0.65260  0.04360  0.28320  Biso   1.000  C
  H2       1.0000 0.70520  0.07530  0.27680  Biso   1.000  H
  C3       1.0000 0.53520  0.95870  0.33360  Biso   1.000  C
  H3       1.0000 0.49220  0.92190  0.36930  Biso   1.000  H
  C4       1.0000 0.63070  0.97500  0.42730  Biso   1.000  C
  C5       1.0000 0.58160  0.91390  0.48930  Biso   1.000  C
  H4       1.0000 0.53080  0.88760  0.48230  Biso   1.000  H
  C6       1.0000 0.60970  0.89240  0.56270  Biso   1.000  C
  C7       1.0000 0.68530  0.92990  0.57410  Biso   1.000  C
  H5       1.0000 0.70400  0.91460  0.62320  Biso   1.000  H
  C8       1.0000 0.73290  0.99120  0.51030  Biso   1.000  C
  C9       1.0000 0.70590  0.01450  0.43750  Biso   1.000  C
  H6       1.0000 0.73790  0.05650  0.39550  Biso   1.000  H
  C10      1.0000 0.49560  0.77280  0.62320  Biso   1.000  C
  H7       1.0000 0.47700  0.76890  0.57910  Biso   1.000  H
  C11      1.0000 0.46600  0.72380  0.69640  Biso   1.000  C
  H8       1.0000 0.42280  0.67920  0.71140  Biso   1.000  H
  C12      1.0000 0.56390  0.81250  0.70200  Biso   1.000  C
  H9       1.0000 0.60200  0.84230  0.72030  Biso   1.000  H
  C13      1.0000 0.83310  0.03580  0.58560  Biso   1.000  C
  H10      1.0000 0.79880  0.01190  0.63280  Biso   1.000  H
  C14      1.0000 0.93850  0.10310  0.49780  Biso   1.000  C
  H11      1.0000 0.99110  0.13420  0.47330  Biso   1.000  H
  C15      1.0000 0.87820  0.07420  0.46390  Biso   1.000  C
  H12      1.0000 0.88120  0.08220  0.41220  Biso   1.000  H
  C16      1.0000 0.53260  0.05410  0.05410  Biso   1.000  C
  H13      1.0000 0.48370  0.10220  0.05360  Biso   1.000  H
  C17      1.0000 0.62050  0.91930  0.08510  Biso   1.000  C
  H14      1.0000 0.64320  0.85590  0.11140  Biso   1.000  H
  C18      1.0000 0.66430  0.97900  0.02310  Biso   1.000  C
  H15      1.0000 0.72130  0.96470  0.99790  Biso   1.000  H
  C19      1.0000 0.62510  0.15280  0.94080  Biso   1.000  C
  C20      1.0000 0.56520  0.23500  0.93450  Biso   1.000  C
  H16      1.0000 0.51370  0.23450  0.96990  Biso   1.000  H
  C21      1.0000 0.58350  0.31790  0.87430  Biso   1.000  C
  C22      1.0000 0.65790  0.32200  0.82110  Biso   1.000  C
  H17      1.0000 0.66830  0.37920  0.78100  Biso   1.000  H
  C23      1.0000 0.71700  0.23970  0.82800  Biso   1.000  C
  C24      1.0000 0.70200  0.15480  0.88830  Biso   1.000  C
  H18      1.0000 0.74330  0.09960  0.89340  Biso   1.000  H
  C25      1.0000 0.83910  0.31730  0.72480  Biso   1.000  C
  H19      1.0000 0.82740  0.37950  0.72440  Biso   1.000  H
  C26      1.0000 0.90340  0.28520  0.68030  Biso   1.000  C
  H20      1.0000 0.94610  0.32170  0.64390  Biso   1.000  H
  C27      1.0000 0.82920  0.16650  0.75100  Biso   1.000  C
  H21      1.0000 0.80880  0.10610  0.77250  Biso   1.000  H
  C28      1.0000 0.54630  0.48570  0.86310  Biso   1.000  C
  H22      1.0000 0.60880  0.49720  0.85980  Biso   1.000  H
  C29      1.0000 0.42420  0.41420  0.87060  Biso   1.000  C
  H23      1.0000 0.38580  0.36850  0.87430  Biso   1.000  H
  C30      1.0000 0.39680  0.50330  0.86640  Biso   1.000  C
  H24      1.0000 0.33440  0.53130  0.86590  Biso   1.000  H
  C31      1.0000 0.30600  0.70970  0.89640  Biso   1.000  C
  C32      1.0000 0.21460  0.69660  0.94470  Biso   1.000  C
  C33      1.0000 0.20630  0.68080  0.02110  Biso   1.000  C
  H25      1.0000 0.25950  0.68010  0.04480  Biso   1.000  H
  C34      1.0000 0.12090  0.66600  0.06480  Biso   1.000  C
  H26      1.0000 0.11710  0.65410  0.11720  Biso   1.000  H
  C35      1.0000 0.04230  0.66900  0.02930  Biso   1.000  C
  C36      1.0000 0.04650  0.68770  0.95100  Biso   1.000  C
  H27      1.0000 0.99270  0.69080  0.92710  Biso   1.000  H
  C37      1.0000 0.13320  0.70160  0.90960  Biso   1.000  C
  H28      1.0000 0.13730  0.71460  0.85700  Biso   1.000  H
  C38      1.0000 0.87820  0.66380  0.03810  Biso   1.000  C
  C39      1.0000 0.85350  0.58720  0.02620  Biso   1.000  C
  H29      1.0000 0.89050  0.52830  0.04330  Biso   1.000  H
  C40      1.0000 0.77350  0.59720  0.98860  Biso   1.000  C
  H30      1.0000 0.75600  0.54510  0.98110  Biso   1.000  H
  C41      1.0000 0.71930  0.68580  0.96210  Biso   1.000  C
  C42      1.0000 0.74370  0.76120  0.97710  Biso   1.000  C
  H31      1.0000 0.70590  0.81970  0.96160  Biso   1.000  H
  C43      1.0000 0.82330  0.75100  0.01480  Biso   1.000  C
  H32      1.0000 0.83960  0.80220  0.02430  Biso   1.000  H
  C44      1.0000 0.63300  0.69960  0.92040  Biso   1.000  C
  C45      1.0000 0.46540  0.75110  0.28080  Biso   1.000  C
  C46      1.0000 0.45340  0.65250  0.33360  Biso   1.000  C
  C47      1.0000 0.52530  0.57940  0.33230  Biso   1.000  C
  H33      1.0000 0.57720  0.59420  0.29680  Biso   1.000  H
  C48      1.0000 0.52160  0.48600  0.38220  Biso   1.000  C
  H34      1.0000 0.57010  0.43830  0.38070  Biso   1.000  H
  C49      1.0000 0.44500  0.46550  0.43350  Biso   1.000  C
  C50      1.0000 0.37360  0.53570  0.43610  Biso   1.000  C
  H35      1.0000 0.32200  0.52030  0.47180  Biso   1.000  H
  C51      1.0000 0.37740  0.62890  0.38610  Biso   1.000  C
  H36      1.0000 0.32840  0.67590  0.38810  Biso   1.000  H
  C52      1.0000 0.36590  0.32920  0.51110  Biso   1.000  C
  C53      1.0000 0.30220  0.33700  0.45950  Biso   1.000  C
  H37      1.0000 0.31280  0.37290  0.40750  Biso   1.000  H
  C54      1.0000 0.22260  0.29040  0.48650  Biso   1.000  C
  H38      1.0000 0.17780  0.29680  0.45290  Biso   1.000  H
  C55      1.0000 0.20900  0.23380  0.56400  Biso   1.000  C
  C56      1.0000 0.27800  0.22630  0.61300  Biso   1.000  C
  H39      1.0000 0.27090  0.18780  0.66470  Biso   1.000  H
  C57      1.0000 0.35490  0.27440  0.58600  Biso   1.000  C
  H40      1.0000 0.39980  0.26950  0.61920  Biso   1.000  H
  C58      1.0000 0.12130  0.18250  0.59360  Biso   1.000  C
  N1       1.0000 0.53480  0.98290  0.25932  Biso   1.000  N
  N2       1.0000 0.60520  0.99340  0.35203  Biso   1.000  N
  N3       1.0000 0.55840  0.82910  0.62695  Biso   1.000  N
  N4       1.0000 0.50890  0.74940  0.74555  Biso   1.000  N
  N5       1.0000 0.81150  0.03060  0.52017  Biso   1.000  N
  N6       1.0000 0.90960  0.07930  0.57390  Biso   1.000  N
  N7       1.0000 0.53580  0.96610  0.10447  Biso   1.000  N
  N8       1.0000 0.60860  0.06610  0.00359  Biso   1.000  N
  N9       1.0000 0.79300  0.24010  0.77180  Biso   1.000  N
  N10      1.0000 0.89760  0.18990  0.69610  Biso   1.000  N
  N11      1.0000 0.47380  0.54840  0.86290  Biso   1.000  N
  N12      1.0000 0.52060  0.40340  0.86860  Biso   1.000  N
  O1       1.0000 0.95890  0.65410  0.07542  Biso   1.000  O
  O2       1.0000 0.44830  0.37260  0.48590  Biso   1.000  O
  O3       1.0000 0.37930  0.70320  0.93050  Biso   1.000  O
  O4       1.0000 0.30960  0.72030  0.82817  Biso   1.000  O
  O5       1.0000 0.57880  0.77320  0.90588  Biso   1.000  O
  O6       1.0000 0.61580  0.63110  0.90360  Biso   1.000  O
  O7       1.0000 0.53340  0.76850  0.23010  Biso   1.000  O
  O8       1.0000 0.40540  0.81680  0.28800  Biso   1.000  O
  O9       1.0000 0.05550  0.20940  0.55160  Biso   1.000  O
  O10      1.0000 0.12490  0.13570  0.68100  Biso   1.000  O
  Zn1      1.0000 0.45302  0.93428  0.20537  Biso   1.000  Zn
  Zn2      1.0000 0.97802  0.09642  0.65379  Biso   1.000  Zn
  Zn3      1.0000 0.48812  0.68308  0.86036  Biso   1.000  Zn
  O11      1.0000 0.10750  0.12190  0.63960  Biso   1.000  O
  C59      1.0000 0.39200  0.96290  0.77160  Biso   1.000  C
  H41      1.0000 0.37590  0.93450  0.82390  Biso   1.000  H
  C60      1.0000 0.34740  0.95640  0.71680  Biso   1.000  C
  H42      1.0000 0.29480  0.92470  0.72320  Biso   1.000  H
  C61      1.0000 0.46480  0.04130  0.66640  Biso   1.000  C
  H43      1.0000 0.50780  0.07810  0.63070  Biso   1.000  H
  C62      1.0000 0.36930  0.02500  0.57270  Biso   1.000  C
  C63      1.0000 0.41840  0.08610  0.51070  Biso   1.000  C
  H44      1.0000 0.46920  0.11240  0.51770  Biso   1.000  H
  C64      1.0000 0.39030  0.10760  0.43730  Biso   1.000  C
  C65      1.0000 0.31470  0.07010  0.42590  Biso   1.000  C
  H45      1.0000 0.29600  0.08540  0.37680  Biso   1.000  H
  C66      1.0000 0.26710  0.00880  0.48970  Biso   1.000  C
  C67      1.0000 0.29410  0.98550  0.56250  Biso   1.000  C
  H46      1.0000 0.26210  0.94350  0.60450  Biso   1.000  H
  C68      1.0000 0.50440  0.22720  0.37680  Biso   1.000  C
  H47      1.0000 0.52300  0.23110  0.42090  Biso   1.000  H
  C69      1.0000 0.53400  0.27620  0.30360  Biso   1.000  C
  H48      1.0000 0.57720  0.32080  0.28860  Biso   1.000  H
  C70      1.0000 0.43610  0.18750  0.29800  Biso   1.000  C
  H49      1.0000 0.39800  0.15770  0.27970  Biso   1.000  H
  C71      1.0000 0.16690  0.96420  0.41440  Biso   1.000  C
  H50      1.0000 0.20120  0.98810  0.36720  Biso   1.000  H
  C72      1.0000 0.06150  0.89690  0.50220  Biso   1.000  C
  H51      1.0000 0.00890  0.86580  0.52670  Biso   1.000  H
  C73      1.0000 0.12180  0.92580  0.53610  Biso   1.000  C
  H52      1.0000 0.11880  0.91780  0.58780  Biso   1.000  H
  C74      1.0000 0.46740  0.94590  0.94590  Biso   1.000  C
  H53      1.0000 0.51630  0.89780  0.94640  Biso   1.000  H
  C75      1.0000 0.37950  0.08070  0.91490  Biso   1.000  C
  H54      1.0000 0.35680  0.14410  0.88860  Biso   1.000  H
  C76      1.0000 0.33570  0.02100  0.97690  Biso   1.000  C
  H55      1.0000 0.27870  0.03530  0.00210  Biso   1.000  H
  C77      1.0000 0.37490  0.84720  0.05920  Biso   1.000  C
  C78      1.0000 0.43480  0.76500  0.06550  Biso   1.000  C
  H56      1.0000 0.48630  0.76550  0.03010  Biso   1.000  H
  C79      1.0000 0.41650  0.68210  0.12570  Biso   1.000  C
  C80      1.0000 0.34210  0.67800  0.17890  Biso   1.000  C
  H57      1.0000 0.33170  0.62080  0.21900  Biso   1.000  H
  C81      1.0000 0.28300  0.76030  0.17200  Biso   1.000  C
  C82      1.0000 0.29800  0.84520  0.11170  Biso   1.000  C
  H58      1.0000 0.25670  0.90040  0.10660  Biso   1.000  H
  C83      1.0000 0.16090  0.68270  0.27520  Biso   1.000  C
  H59      1.0000 0.17260  0.62050  0.27560  Biso   1.000  H
  C84      1.0000 0.09660  0.71480  0.31970  Biso   1.000  C
  H60      1.0000 0.05390  0.67830  0.35610  Biso   1.000  H
  C85      1.0000 0.17080  0.83350  0.24900  Biso   1.000  C
  H61      1.0000 0.19120  0.89390  0.22750  Biso   1.000  H
  C86      1.0000 0.45370  0.51430  0.13690  Biso   1.000  C
  H62      1.0000 0.39120  0.50280  0.14020  Biso   1.000  H
  C87      1.0000 0.57580  0.58580  0.12940  Biso   1.000  C
  H63      1.0000 0.61420  0.63150  0.12570  Biso   1.000  H
  C88      1.0000 0.60320  0.49670  0.13360  Biso   1.000  C
  H64      1.0000 0.66560  0.46870  0.13410  Biso   1.000  H
  C89      1.0000 0.69400  0.29030  0.10360  Biso   1.000  C
  C90      1.0000 0.78540  0.30340  0.05530  Biso   1.000  C
  C91      1.0000 0.79370  0.31920  0.97890  Biso   1.000  C
  H65      1.0000 0.74050  0.31990  0.95520  Biso   1.000  H
  C92      1.0000 0.87910  0.33400  0.93520  Biso   1.000  C
  H66      1.0000 0.88290  0.34590  0.88280  Biso   1.000  H
  C93      1.0000 0.95770  0.33100  0.97070  Biso   1.000  C
  C94      1.0000 0.95350  0.31230  0.04900  Biso   1.000  C
  H67      1.0000 0.00730  0.30920  0.07290  Biso   1.000  H
  C95      1.0000 0.86680  0.29840  0.09040  Biso   1.000  C
  H68      1.0000 0.86270  0.28540  0.14300  Biso   1.000  H
  C96      1.0000 0.12180  0.33620  0.96190  Biso   1.000  C
  C97      1.0000 0.14650  0.41280  0.97380  Biso   1.000  C
  H69      1.0000 0.10950  0.47170  0.95670  Biso   1.000  H
  C98      1.0000 0.22650  0.40280  0.01140  Biso   1.000  C
  H70      1.0000 0.24400  0.45490  0.01890  Biso   1.000  H
  C99      1.0000 0.28070  0.31420  0.03790  Biso   1.000  C
  C100     1.0000 0.25630  0.23880  0.02290  Biso   1.000  C
  H71      1.0000 0.29410  0.18030  0.03840  Biso   1.000  H
  C101     1.0000 0.17670  0.24900  0.98520  Biso   1.000  C
  H72      1.0000 0.16040  0.19780  0.97570  Biso   1.000  H
  C102     1.0000 0.36700  0.30040  0.07960  Biso   1.000  C
  C103     1.0000 0.53460  0.24890  0.71920  Biso   1.000  C
  C104     1.0000 0.54660  0.34750  0.66640  Biso   1.000  C
  C105     1.0000 0.47470  0.42060  0.66770  Biso   1.000  C
  H73      1.0000 0.42280  0.40580  0.70320  Biso   1.000  H
  C106     1.0000 0.47840  0.51400  0.61780  Biso   1.000  C
  H74      1.0000 0.42990  0.56170  0.61930  Biso   1.000  H
  C107     1.0000 0.55500  0.53450  0.56650  Biso   1.000  C
  C108     1.0000 0.62640  0.46430  0.56390  Biso   1.000  C
  H75      1.0000 0.67800  0.47970  0.52820  Biso   1.000  H
  C109     1.0000 0.62260  0.37110  0.61390  Biso   1.000  C
  H76      1.0000 0.67160  0.32410  0.61190  Biso   1.000  H
  C110     1.0000 0.63410  0.67080  0.48890  Biso   1.000  C
  C111     1.0000 0.69780  0.66300  0.54050  Biso   1.000  C
  H77      1.0000 0.68720  0.62710  0.59250  Biso   1.000  H
  C112     1.0000 0.77740  0.70960  0.51350  Biso   1.000  C
  H78      1.0000 0.82220  0.70320  0.54710  Biso   1.000  H
  C113     1.0000 0.79100  0.76620  0.43600  Biso   1.000  C
  C114     1.0000 0.72200  0.77370  0.38700  Biso   1.000  C
  H79      1.0000 0.72910  0.81220  0.33530  Biso   1.000  H
  C115     1.0000 0.64510  0.72560  0.41400  Biso   1.000  C
  H80      1.0000 0.60020  0.73050  0.38080  Biso   1.000  H
  C116     1.0000 0.87870  0.81750  0.40640  Biso   1.000  C
  N13      1.0000 0.46520  0.01710  0.74068  Biso   1.000  N
  N14      1.0000 0.39480  0.00660  0.64797  Biso   1.000  N
  N15      1.0000 0.44160  0.17090  0.37305  Biso   1.000  N
  N16      1.0000 0.49110  0.25060  0.25445  Biso   1.000  N
  N17      1.0000 0.18850  0.96940  0.47983  Biso   1.000  N
  N18      1.0000 0.09040  0.92070  0.42610  Biso   1.000  N
  N19      1.0000 0.46420  0.03390  0.89553  Biso   1.000  N
  N20      1.0000 0.39140  0.93390  0.99641  Biso   1.000  N
  N21      1.0000 0.20700  0.75990  0.22820  Biso   1.000  N
  N22      1.0000 0.10240  0.81010  0.30390  Biso   1.000  N
  N23      1.0000 0.52620  0.45160  0.13710  Biso   1.000  N
  N24      1.0000 0.47940  0.59660  0.13140  Biso   1.000  N
  O12      1.0000 0.04110  0.34590  0.92458  Biso   1.000  O
  O13      1.0000 0.55170  0.62740  0.51410  Biso   1.000  O
  O14      1.0000 0.62070  0.29680  0.06950  Biso   1.000  O
  O15      1.0000 0.69040  0.27970  0.17183  Biso   1.000  O
  O16      1.0000 0.42120  0.22680  0.09412  Biso   1.000  O
  O17      1.0000 0.38420  0.36890  0.09640  Biso   1.000  O
  O18      1.0000 0.46660  0.23150  0.76990  Biso   1.000  O
  O19      1.0000 0.59460  0.18320  0.71200  Biso   1.000  O
  O20      1.0000 0.94450  0.79060  0.44840  Biso   1.000  O
  O21      1.0000 0.87510  0.86430  0.31900  Biso   1.000  O
  Zn4      1.0000 0.54698  0.06572  0.79463  Biso   1.000  Zn
  Zn5      1.0000 0.02198  0.90358  0.34621  Biso   1.000  Zn
  Zn6      1.0000 0.51188  0.31692  0.13964  Biso   1.000  Zn
  O22      1.0000 0.89250  0.87810  0.36040  Biso   1.000  O
