data_image0
_cell_length_a       15.0089
_cell_length_b       15.3987
_cell_length_c       15.5691
_cell_angle_alpha    67.873
_cell_angle_beta     64.609
_cell_angle_gamma    68.959

_symmetry_space_group_name_H-M    "P 1"
_symmetry_int_tables_number       1

loop_
  _symmetry_equiv_pos_as_xyz
  'x, y, z'

loop_
  _atom_site_label
  _atom_site_occupancy
  _atom_site_fract_x
  _atom_site_fract_y
  _atom_site_fract_z
  _atom_site_thermal_displace_type
  _atom_site_B_iso_or_equiv
  _atom_site_type_symbol
  C1       1.0000 0.66637  0.52342  0.13609  Biso   1.000  C
  Co1      1.0000 0.25468  0.92503  0.97640  Biso   1.000  Co
  B1       1.0000 0.64147  0.63903  0.06644  Biso   1.000  B
  H1       1.0000 0.57380  0.67320  0.04180  Biso   1.000  H
  B2       1.0000 0.74264  0.55095  0.01404  Biso   1.000  B
  H2       1.0000 0.74200  0.52590  0.95550  Biso   1.000  H
  B3       1.0000 0.79465  0.47008  0.10639  Biso   1.000  B
  H3       1.0000 0.82860  0.39190  0.10830  Biso   1.000  H
  B4       1.0000 0.72377  0.50856  0.21660  Biso   1.000  B
  H4       1.0000 0.71070  0.45570  0.29110  Biso   1.000  H
  B5       1.0000 0.62932  0.61420  0.19168  Biso   1.000  B
  H5       1.0000 0.55400  0.63240  0.24930  Biso   1.000  H
  B6       1.0000 0.76046  0.66685  0.99092  Biso   1.000  B
  H6       1.0000 0.77160  0.72020  0.91680  Biso   1.000  H
  B7       1.0000 0.85634  0.56207  0.01488  Biso   1.000  B
  H7       1.0000 0.93140  0.54550  0.95620  Biso   1.000  H
  B8       1.0000 0.84424  0.53485  0.14120  Biso   1.000  B
  H8       1.0000 0.91180  0.49960  0.16610  Biso   1.000  H
  B9       1.0000 0.74218  0.62382  0.19401  Biso   1.000  B
  H9       1.0000 0.74190  0.64850  0.25320  Biso   1.000  H
  C2       1.0000 0.69349  0.69726  0.10177  Biso   1.000  C
  B10      1.0000 0.82362  0.65696  0.06992  Biso   1.000  B
  H10      1.0000 0.87660  0.70360  0.04770  Biso   1.000  H
  C3       1.0000 0.64877  0.80677  0.09694  Biso   1.000  C
  H11      1.0000 0.70100  0.84310  0.04640  Biso   1.000  H
  O1       1.0000 0.62528  0.82106  0.18941  Biso   1.000  O
  H12      1.0000 0.64500  0.86920  0.18110  Biso   1.000  H
  C4       1.0000 0.55466  0.84416  0.06724  Biso   1.000  C
  C5       1.0000 0.46012  0.83674  0.13842  Biso   1.000  C
  H13      1.0000 0.45250  0.81440  0.20640  Biso   1.000  H
  C6       1.0000 0.37711  0.86226  0.10922  Biso   1.000  C
  H14      1.0000 0.31290  0.85600  0.15840  Biso   1.000  H
  N1       1.0000 0.38370  0.89580  0.01351  Biso   1.000  N
  C7       1.0000 0.47440  0.90787  0.94562  Biso   1.000  C
  H15      1.0000 0.47920  0.93440  0.87840  Biso   1.000  H
  C8       1.0000 0.56148  0.88347  0.96880  Biso   1.000  C
  H16      1.0000 0.62420  0.89340  0.91860  Biso   1.000  H
  C9       1.0000 0.58585  0.46523  0.17095  Biso   1.000  C
  H17      1.0000 0.56360  0.44420  0.24460  Biso   1.000  H
  O2       1.0000 0.49950  0.52160  0.14690  Biso   1.000  O
  H18      1.0000 0.44900  0.49960  0.18840  Biso   1.000  H
  C10      1.0000 0.62638  0.37360  0.13629  Biso   1.000  C
  C11      1.0000 0.61731  0.37261  0.05171  Biso   1.000  C
  H19      1.0000 0.58920  0.43060  0.01150  Biso   1.000  H
  C12      1.0000 0.64946  0.28638  0.02618  Biso   1.000  C
  H20      1.0000 0.64230  0.28730  0.96810  Biso   1.000  H
  N2       1.0000 0.68994  0.20209  0.07908  Biso   1.000  N
  C13      1.0000 0.69995  0.20338  0.16029  Biso   1.000  C
  H21      1.0000 0.73000  0.14470  0.19830  Biso   1.000  H
  C14      1.0000 0.66840  0.28663  0.19132  Biso   1.000  C
  H22      1.0000 0.67570  0.28380  0.25010  Biso   1.000  H
  O3       1.0000 0.18301  0.83981  0.10824  Biso   1.000  O
  C15      1.0000 0.10582  0.81473  0.12029  Biso   1.000  C
  O4       1.0000 0.04271  0.86144  0.07678  Biso   1.000  O
  C16      1.0000 0.08975  0.71873  0.19084  Biso   1.000  C
  C17      1.0000 0.01405  0.68250  0.19749  Biso   1.000  C
  H23      1.0000 0.96930  0.72070  0.16150  Biso   1.000  H
  C18      1.0000 0.00328  0.59073  0.25645  Biso   1.000  C
  H24      1.0000 0.95120  0.56660  0.26040  Biso   1.000  H
  C19      1.0000 0.06856  0.53324  0.31020  Biso   1.000  C
  C20      1.0000 0.14107  0.57252  0.30715  Biso   1.000  C
  H25      1.0000 0.18290  0.53630  0.34650  Biso   1.000  H
  C21      1.0000 0.15243  0.66388  0.24710  Biso   1.000  C
  H26      1.0000 0.20310  0.68910  0.24430  Biso   1.000  H
  C22      1.0000 0.06799  0.43000  0.35961  Biso   1.000  C
  C23      1.0000 0.05661  0.37783  0.30960  Biso   1.000  C
  H27      1.0000 0.04130  0.41080  0.25050  Biso   1.000  H
  C24      1.0000 0.06743  0.27818  0.34538  Biso   1.000  C
  C25      1.0000 0.08679  0.23148  0.43391  Biso   1.000  C
  H28      1.0000 0.09380  0.16370  0.45900  Biso   1.000  H
  C26      1.0000 0.09611  0.28184  0.48644  Biso   1.000  C
  C27      1.0000 0.08744  0.38176  0.44828  Biso   1.000  C
  H29      1.0000 0.09480  0.41680  0.48280  Biso   1.000  H
  C28      1.0000 0.07001  0.22211  0.28435  Biso   1.000  C
  C29      1.0000 0.00143  0.25354  0.23420  Biso   1.000  C
  H30      1.0000 0.94900  0.31040  0.24160  Biso   1.000  H
  C30      1.0000 0.00933  0.20217  0.17349  Biso   1.000  C
  H31      1.0000 0.96060  0.22220  0.14200  Biso   1.000  H
  C31      1.0000 0.08912  0.12094  0.15882  Biso   1.000  C
  C32      1.0000 0.15753  0.08887  0.20886  Biso   1.000  C
  H32      1.0000 0.21160  0.03350  0.19930  Biso   1.000  H
  C33      1.0000 0.14659  0.13810  0.27290  Biso   1.000  C
  H33      1.0000 0.19150  0.11440  0.30920  Biso   1.000  H
  C34      1.0000 0.10471  0.06838  0.08710  Biso   1.000  C
  O5       1.0000 0.02699  0.05857  0.08369  Biso   1.000  O
  O6       1.0000 0.19627  0.03887  0.03741  Biso   1.000  O
  C35      1.0000 0.12152  0.22621  0.57728  Biso   1.000  C
  C36      1.0000 0.07580  0.15004  0.64202  Biso   1.000  C
  H34      1.0000 0.02450  0.13860  0.63020  Biso   1.000  H
  C37      1.0000 0.10429  0.09076  0.72357  Biso   1.000  C
  H35      1.0000 0.07220  0.03960  0.76720  Biso   1.000  H
  C38      1.0000 0.18028  0.10686  0.74082  Biso   1.000  C
  C39      1.0000 0.22609  0.18326  0.67692  Biso   1.000  C
  H36      1.0000 0.27780  0.19440  0.68850  Biso   1.000  H
  C40      1.0000 0.19623  0.24270  0.59671  Biso   1.000  C
  H37      1.0000 0.22670  0.29520  0.55440  Biso   1.000  H
  C41      1.0000 0.21196  0.04063  0.82621  Biso   1.000  C
  O7       1.0000 0.15347  0.98778  0.89536  Biso   1.000  O
  O8       1.0000 0.29733  0.03210  0.82994  Biso   1.000  O
  H38      1.0000 0.53270  0.50790  0.14080  Biso   1.000  H
  O9       1.0000 0.53910  0.44810  0.27010  Biso   1.000  O
  H39      1.0000 0.47720  0.45310  0.28420  Biso   1.000  H
  C42      1.0000 0.33363  0.47658  0.86391  Biso   1.000  C
  Co2      1.0000 0.74532  0.07497  0.02360  Biso   1.000  Co
  B11      1.0000 0.35853  0.36097  0.93356  Biso   1.000  B
  H40      1.0000 0.42620  0.32680  0.95820  Biso   1.000  H
  B12      1.0000 0.25736  0.44905  0.98596  Biso   1.000  B
  H41      1.0000 0.25800  0.47410  0.04450  Biso   1.000  H
  B13      1.0000 0.20535  0.52992  0.89361  Biso   1.000  B
  H42      1.0000 0.17140  0.60810  0.89170  Biso   1.000  H
  B14      1.0000 0.27623  0.49144  0.78340  Biso   1.000  B
  H43      1.0000 0.28930  0.54430  0.70890  Biso   1.000  H
  B15      1.0000 0.37068  0.38580  0.80832  Biso   1.000  B
  H44      1.0000 0.44600  0.36760  0.75070  Biso   1.000  H
  B16      1.0000 0.23954  0.33315  0.00908  Biso   1.000  B
  H45      1.0000 0.22840  0.27980  0.08320  Biso   1.000  H
  B17      1.0000 0.14366  0.43793  0.98512  Biso   1.000  B
  H46      1.0000 0.06860  0.45450  0.04380  Biso   1.000  H
  B18      1.0000 0.15576  0.46515  0.85880  Biso   1.000  B
  H47      1.0000 0.08820  0.50040  0.83390  Biso   1.000  H
  B19      1.0000 0.25782  0.37618  0.80599  Biso   1.000  B
  H48      1.0000 0.25810  0.35150  0.74680  Biso   1.000  H
  C43      1.0000 0.30651  0.30274  0.89823  Biso   1.000  C
  B20      1.0000 0.17638  0.34304  0.93008  Biso   1.000  B
  H49      1.0000 0.12340  0.29640  0.95230  Biso   1.000  H
  C44      1.0000 0.35123  0.19323  0.90306  Biso   1.000  C
  H50      1.0000 0.29900  0.15690  0.95360  Biso   1.000  H
  O10      1.0000 0.37472  0.17894  0.81059  Biso   1.000  O
  H51      1.0000 0.35500  0.13080  0.81890  Biso   1.000  H
  C45      1.0000 0.44534  0.15584  0.93276  Biso   1.000  C
  C46      1.0000 0.53988  0.16326  0.86158  Biso   1.000  C
  H52      1.0000 0.54750  0.18560  0.79360  Biso   1.000  H
  C47      1.0000 0.62289  0.13774  0.89078  Biso   1.000  C
  H53      1.0000 0.68710  0.14400  0.84160  Biso   1.000  H
  N3       1.0000 0.61630  0.10420  0.98649  Biso   1.000  N
  C48      1.0000 0.52560  0.09213  0.05438  Biso   1.000  C
  H54      1.0000 0.52080  0.06560  0.12160  Biso   1.000  H
  C49      1.0000 0.43852  0.11653  0.03120  Biso   1.000  C
  H55      1.0000 0.37580  0.10660  0.08140  Biso   1.000  H
  C50      1.0000 0.41415  0.53477  0.82905  Biso   1.000  C
  H56      1.0000 0.43640  0.55580  0.75540  Biso   1.000  H
  O11      1.0000 0.50050  0.47840  0.85310  Biso   1.000  O
  H57      1.0000 0.55100  0.50040  0.81160  Biso   1.000  H
  C51      1.0000 0.37362  0.62640  0.86371  Biso   1.000  C
  C52      1.0000 0.38269  0.62739  0.94829  Biso   1.000  C
  H58      1.0000 0.41080  0.56940  0.98850  Biso   1.000  H
  C53      1.0000 0.35054  0.71362  0.97382  Biso   1.000  C
  H59      1.0000 0.35770  0.71270  0.03190  Biso   1.000  H
  N4       1.0000 0.31006  0.79791  0.92092  Biso   1.000  N
  C54      1.0000 0.30005  0.79662  0.83971  Biso   1.000  C
  H60      1.0000 0.27000  0.85530  0.80170  Biso   1.000  H
  C55      1.0000 0.33160  0.71337  0.80868  Biso   1.000  C
  H61      1.0000 0.32430  0.71620  0.74990  Biso   1.000  H
  O12      1.0000 0.81699  0.16019  0.89176  Biso   1.000  O
  C56      1.0000 0.89418  0.18527  0.87971  Biso   1.000  C
  O13      1.0000 0.95729  0.13856  0.92322  Biso   1.000  O
  C57      1.0000 0.91025  0.28127  0.80916  Biso   1.000  C
  C58      1.0000 0.98595  0.31750  0.80251  Biso   1.000  C
  H62      1.0000 0.03070  0.27930  0.83850  Biso   1.000  H
  C59      1.0000 0.99672  0.40927  0.74355  Biso   1.000  C
  H63      1.0000 0.04880  0.43340  0.73960  Biso   1.000  H
  C60      1.0000 0.93144  0.46676  0.68980  Biso   1.000  C
  C61      1.0000 0.85893  0.42748  0.69285  Biso   1.000  C
  H64      1.0000 0.81710  0.46370  0.65350  Biso   1.000  H
  C62      1.0000 0.84757  0.33612  0.75290  Biso   1.000  C
  H65      1.0000 0.79690  0.31090  0.75570  Biso   1.000  H
  C63      1.0000 0.93201  0.57000  0.64039  Biso   1.000  C
  C64      1.0000 0.94339  0.62217  0.69040  Biso   1.000  C
  H66      1.0000 0.95870  0.58920  0.74950  Biso   1.000  H
  C65      1.0000 0.93257  0.72182  0.65462  Biso   1.000  C
  C66      1.0000 0.91321  0.76852  0.56609  Biso   1.000  C
  H67      1.0000 0.90620  0.83630  0.54100  Biso   1.000  H
  C67      1.0000 0.90389  0.71816  0.51356  Biso   1.000  C
  C68      1.0000 0.91256  0.61824  0.55172  Biso   1.000  C
  H68      1.0000 0.90520  0.58320  0.51720  Biso   1.000  H
  C69      1.0000 0.92999  0.77789  0.71565  Biso   1.000  C
  C70      1.0000 0.99857  0.74646  0.76580  Biso   1.000  C
  H69      1.0000 0.05100  0.68960  0.75840  Biso   1.000  H
  C71      1.0000 0.99067  0.79783  0.82651  Biso   1.000  C
  H70      1.0000 0.03940  0.77780  0.85800  Biso   1.000  H
  C72      1.0000 0.91088  0.87906  0.84118  Biso   1.000  C
  C73      1.0000 0.84247  0.91113  0.79114  Biso   1.000  C
  H71      1.0000 0.78840  0.96650  0.80070  Biso   1.000  H
  C74      1.0000 0.85341  0.86190  0.72710  Biso   1.000  C
  H72      1.0000 0.80850  0.88560  0.69080  Biso   1.000  H
  C75      1.0000 0.89529  0.93162  0.91290  Biso   1.000  C
  O14      1.0000 0.97301  0.94143  0.91631  Biso   1.000  O
  O15      1.0000 0.80373  0.96113  0.96259  Biso   1.000  O
  C76      1.0000 0.87848  0.77379  0.42272  Biso   1.000  C
  C77      1.0000 0.92420  0.84996  0.35798  Biso   1.000  C
  H73      1.0000 0.97550  0.86140  0.36980  Biso   1.000  H
  C78      1.0000 0.89571  0.90924  0.27643  Biso   1.000  C
  H74      1.0000 0.92780  0.96040  0.23280  Biso   1.000  H
  C79      1.0000 0.81972  0.89314  0.25918  Biso   1.000  C
  C80      1.0000 0.77391  0.81674  0.32308  Biso   1.000  C
  H75      1.0000 0.72220  0.80560  0.31150  Biso   1.000  H
  C81      1.0000 0.80377  0.75730  0.40329  Biso   1.000  C
  H76      1.0000 0.77330  0.70480  0.44560  Biso   1.000  H
  C82      1.0000 0.78804  0.95937  0.17379  Biso   1.000  C
  O16      1.0000 0.84653  0.01222  0.10464  Biso   1.000  O
  O17      1.0000 0.70267  0.96790  0.17006  Biso   1.000  O
  H77      1.0000 0.46730  0.49210  0.85920  Biso   1.000  H
  O18      1.0000 0.46090  0.55190  0.72990  Biso   1.000  O
  H78      1.0000 0.52280  0.54690  0.71580  Biso   1.000  H
  Co3      1.0000 0.00000  0.00000  0.00000  Biso   1.000  Co
