data_image0
_cell_length_a       15.0882
_cell_length_b       16.1848
_cell_length_c       27.4294
_cell_angle_alpha    90
_cell_angle_beta     105.479
_cell_angle_gamma    90

_symmetry_space_group_name_H-M    "P 1"
_symmetry_int_tables_number       1

loop_
  _symmetry_equiv_pos_as_xyz
  'x, y, z'

loop_
  _atom_site_label
  _atom_site_occupancy
  _atom_site_fract_x
  _atom_site_fract_y
  _atom_site_fract_z
  _atom_site_thermal_displace_type
  _atom_site_B_iso_or_equiv
  _atom_site_type_symbol
  W1       1.0000 0.56264  0.22443  0.45023  Biso   1.000  W
  W2       1.0000 0.75176  0.28142  0.39216  Biso   1.000  W
  W3       1.0000 0.58577  0.23358  0.57486  Biso   1.000  W
  W4       1.0000 0.93359  0.36755  0.47611  Biso   1.000  W
  W5       1.0000 0.89766  0.15965  0.47664  Biso   1.000  W
  W6       1.0000 0.95847  0.37717  0.61118  Biso   1.000  W
  W7       1.0000 0.80208  0.30248  0.66761  Biso   1.000  W
  W8       1.0000 0.70639  0.09371  0.52814  Biso   1.000  W
  W9       1.0000 0.92098  0.16891  0.61508  Biso   1.000  W
  W10      1.0000 0.59480  0.43922  0.41777  Biso   1.000  W
  W11      1.0000 0.37207  0.54726  0.39692  Biso   1.000  W
  Nd1      1.0000 0.80234  0.56564  0.52554  Biso   1.000  Nd
  Nd2      1.0000 0.65099  0.71733  0.26197  Biso   1.000  Nd
  As1      1.0000 0.75749  0.32239  0.52740  Biso   1.000  As
  P1       1.0000 0.51700  0.56710  0.32277  Biso   1.000  P
  P2       1.0000 0.41240  0.41050  0.31616  Biso   1.000  P
  O1       1.0000 0.68560  0.38120  0.39490  Biso   1.000  O
  O2       1.0000 0.91260  0.36330  0.67130  Biso   1.000  O
  O3       1.0000 0.81960  0.28450  0.48360  Biso   1.000  O
  O4       1.0000 0.49970  0.37830  0.35540  Biso   1.000  O
  O5       1.0000 0.93350  0.16050  0.54830  Biso   1.000  O
  O6       1.0000 0.34960  0.45780  0.34350  Biso   1.000  O
  O7       1.0000 0.48590  0.49350  0.42430  Biso   1.000  O
  O8       1.0000 0.61570  0.12250  0.56710  Biso   1.000  O
  O9       1.0000 0.40200  0.64490  0.43170  Biso   1.000  O
  O10      1.0000 0.86190  0.34200  0.40580  Biso   1.000  O
  O11      1.0000 0.83600  0.29310  0.58580  Biso   1.000  O
  O12      1.0000 0.86830  0.45460  0.48220  Biso   1.000  O
  O13      1.0000 0.44550  0.60380  0.34700  Biso   1.000  O
  O14      1.0000 0.86600  0.20100  0.66840  Biso   1.000  O
  O15      1.0000 0.97570  0.24400  0.47210  Biso   1.000  O
  O16      1.0000 0.78270  0.10780  0.48710  Biso   1.000  O
  O17      1.0000 0.50990  0.23740  0.50600  Biso   1.000  O
  O18      1.0000 0.68500  0.23390  0.52320  Biso   1.000  O
  O19      1.0000 0.97950  0.35060  0.54640  Biso   1.000  O
  O20      1.0000 0.57670  0.34530  0.45240  Biso   1.000  O
  O21      1.0000 0.65200  0.23160  0.41250  Biso   1.000  O
  O22      1.0000 0.59460  0.52280  0.36350  Biso   1.000  O
  O23      1.0000 0.81990  0.18240  0.40990  Biso   1.000  O
  O24      1.0000 0.00350  0.25480  0.63020  Biso   1.000  O
  O25      1.0000 0.80080  0.11490  0.58450  Biso   1.000  O
  O26      1.0000 0.35960  0.34440  0.28230  Biso   1.000  O
  O27      1.0000 0.26650  0.59980  0.35420  Biso   1.000  O
  O28      1.0000 0.67280  0.49240  0.46490  Biso   1.000  O
  O29      1.0000 0.88510  0.45960  0.58640  Biso   1.000  O
  O30      1.0000 0.69290  0.24800  0.62980  Biso   1.000  O
  O31      1.0000 0.03050  0.40590  0.46130  Biso   1.000  O
  O32      1.0000 0.31300  0.49910  0.43390  Biso   1.000  O
  O33      1.0000 0.55640  0.63020  0.29380  Biso   1.000  O
  O34      1.0000 0.59760  0.11630  0.47020  Biso   1.000  O
  O35      1.0000 0.52100  0.44970  0.25650  Biso   1.000  O
  H1       1.0000 0.49550  0.41170  0.23830  Biso   1.000  H
  C1       1.0000 0.45510  0.48880  0.28060  Biso   1.000  C
  C2       1.0000 0.37580  0.52690  0.24160  Biso   1.000  C
  H2       1.0000 0.33400  0.55190  0.25830  Biso   1.000  H
  H3       1.0000 0.39860  0.56820  0.22300  Biso   1.000  H
  H4       1.0000 0.34420  0.48480  0.21880  Biso   1.000  H
  O36      1.0000 0.61800  0.78880  0.32660  Biso   1.000  O
  O37      1.0000 0.55560  0.82200  0.30640  Biso   1.000  O
  W12      1.0000 0.43736  0.72443  0.04977  Biso   1.000  W
  W13      1.0000 0.24824  0.78142  0.10784  Biso   1.000  W
  W14      1.0000 0.41423  0.73358  0.92514  Biso   1.000  W
  W15      1.0000 0.06641  0.86755  0.02389  Biso   1.000  W
  W16      1.0000 0.10234  0.65965  0.02336  Biso   1.000  W
  W17      1.0000 0.04153  0.87717  0.88882  Biso   1.000  W
  W18      1.0000 0.19792  0.80248  0.83239  Biso   1.000  W
  W19      1.0000 0.29361  0.59371  0.97186  Biso   1.000  W
  W20      1.0000 0.07902  0.66891  0.88492  Biso   1.000  W
  W21      1.0000 0.40520  0.93922  0.08223  Biso   1.000  W
  W22      1.0000 0.62793  0.04726  0.10308  Biso   1.000  W
  Nd3      1.0000 0.19766  0.06564  0.97446  Biso   1.000  Nd
  Nd4      1.0000 0.34901  0.21733  0.23803  Biso   1.000  Nd
  As2      1.0000 0.24251  0.82239  0.97260  Biso   1.000  As
  P3       1.0000 0.48300  0.06710  0.17723  Biso   1.000  P
  P4       1.0000 0.58760  0.91050  0.18384  Biso   1.000  P
  O38      1.0000 0.31440  0.88120  0.10510  Biso   1.000  O
  O39      1.0000 0.08740  0.86330  0.82870  Biso   1.000  O
  O40      1.0000 0.18040  0.78450  0.01640  Biso   1.000  O
  O41      1.0000 0.50030  0.87830  0.14460  Biso   1.000  O
  O42      1.0000 0.06650  0.66050  0.95170  Biso   1.000  O
  O43      1.0000 0.65040  0.95780  0.15650  Biso   1.000  O
  O44      1.0000 0.51410  0.99350  0.07570  Biso   1.000  O
  O45      1.0000 0.38430  0.62250  0.93290  Biso   1.000  O
  O46      1.0000 0.59800  0.14490  0.06830  Biso   1.000  O
  O47      1.0000 0.13810  0.84200  0.09420  Biso   1.000  O
  O48      1.0000 0.16400  0.79310  0.91420  Biso   1.000  O
  O49      1.0000 0.13170  0.95460  0.01780  Biso   1.000  O
  O50      1.0000 0.55450  0.10380  0.15300  Biso   1.000  O
  O51      1.0000 0.13400  0.70100  0.83160  Biso   1.000  O
  O52      1.0000 0.02430  0.74400  0.02790  Biso   1.000  O
  O53      1.0000 0.21730  0.60780  0.01290  Biso   1.000  O
  O54      1.0000 0.49010  0.73740  0.99400  Biso   1.000  O
  O55      1.0000 0.31500  0.73390  0.97680  Biso   1.000  O
  O56      1.0000 0.02050  0.85060  0.95360  Biso   1.000  O
  O57      1.0000 0.42330  0.84530  0.04760  Biso   1.000  O
  O58      1.0000 0.34800  0.73160  0.08750  Biso   1.000  O
  O59      1.0000 0.40540  0.02280  0.13650  Biso   1.000  O
  O60      1.0000 0.18010  0.68240  0.09010  Biso   1.000  O
  O61      1.0000 0.99650  0.75480  0.86980  Biso   1.000  O
  O62      1.0000 0.19920  0.61490  0.91550  Biso   1.000  O
  O63      1.0000 0.64040  0.84440  0.21770  Biso   1.000  O
  O64      1.0000 0.73350  0.09980  0.14580  Biso   1.000  O
  O65      1.0000 0.32720  0.99240  0.03510  Biso   1.000  O
  O66      1.0000 0.11490  0.95960  0.91360  Biso   1.000  O
  O67      1.0000 0.30710  0.74800  0.87020  Biso   1.000  O
  O68      1.0000 0.96950  0.90590  0.03870  Biso   1.000  O
  O69      1.0000 0.68700  0.99910  0.06610  Biso   1.000  O
  O70      1.0000 0.44360  0.13020  0.20620  Biso   1.000  O
  O71      1.0000 0.40240  0.61630  0.02980  Biso   1.000  O
  O72      1.0000 0.47900  0.94970  0.24350  Biso   1.000  O
  H5       1.0000 0.50450  0.91170  0.26170  Biso   1.000  H
  C3       1.0000 0.54490  0.98880  0.21940  Biso   1.000  C
  C4       1.0000 0.62420  0.02690  0.25840  Biso   1.000  C
  H6       1.0000 0.66600  0.05190  0.24170  Biso   1.000  H
  H7       1.0000 0.60140  0.06820  0.27700  Biso   1.000  H
  H8       1.0000 0.65580  0.98480  0.28120  Biso   1.000  H
  O73      1.0000 0.38200  0.28880  0.17340  Biso   1.000  O
  O74      1.0000 0.44440  0.32200  0.19360  Biso   1.000  O
  W23      1.0000 0.43736  0.77557  0.54977  Biso   1.000  W
  W24      1.0000 0.24824  0.71858  0.60784  Biso   1.000  W
  W25      1.0000 0.41423  0.76642  0.42514  Biso   1.000  W
  W26      1.0000 0.06641  0.63245  0.52389  Biso   1.000  W
  W27      1.0000 0.10234  0.84035  0.52336  Biso   1.000  W
  W28      1.0000 0.04153  0.62283  0.38882  Biso   1.000  W
  W29      1.0000 0.19792  0.69752  0.33239  Biso   1.000  W
  W30      1.0000 0.29361  0.90629  0.47186  Biso   1.000  W
  W31      1.0000 0.07902  0.83109  0.38492  Biso   1.000  W
  W32      1.0000 0.40520  0.56078  0.58223  Biso   1.000  W
  W33      1.0000 0.62793  0.45274  0.60308  Biso   1.000  W
  Nd5      1.0000 0.19766  0.43436  0.47446  Biso   1.000  Nd
  Nd6      1.0000 0.34901  0.28267  0.73803  Biso   1.000  Nd
  As3      1.0000 0.24251  0.67761  0.47260  Biso   1.000  As
  P5       1.0000 0.48300  0.43290  0.67723  Biso   1.000  P
  P6       1.0000 0.58760  0.58950  0.68384  Biso   1.000  P
  O75      1.0000 0.31440  0.61880  0.60510  Biso   1.000  O
  O76      1.0000 0.08740  0.63670  0.32870  Biso   1.000  O
  O77      1.0000 0.18040  0.71550  0.51640  Biso   1.000  O
  O78      1.0000 0.50030  0.62170  0.64460  Biso   1.000  O
  O79      1.0000 0.06650  0.83950  0.45170  Biso   1.000  O
  O80      1.0000 0.65040  0.54220  0.65650  Biso   1.000  O
  O81      1.0000 0.51410  0.50650  0.57570  Biso   1.000  O
  O82      1.0000 0.38430  0.87750  0.43290  Biso   1.000  O
  O83      1.0000 0.59800  0.35510  0.56830  Biso   1.000  O
  O84      1.0000 0.13810  0.65800  0.59420  Biso   1.000  O
  O85      1.0000 0.16400  0.70690  0.41420  Biso   1.000  O
  O86      1.0000 0.13170  0.54540  0.51780  Biso   1.000  O
  O87      1.0000 0.55450  0.39620  0.65300  Biso   1.000  O
  O88      1.0000 0.13400  0.79900  0.33160  Biso   1.000  O
  O89      1.0000 0.02430  0.75600  0.52790  Biso   1.000  O
  O90      1.0000 0.21730  0.89220  0.51290  Biso   1.000  O
  O91      1.0000 0.49010  0.76260  0.49400  Biso   1.000  O
  O92      1.0000 0.31500  0.76610  0.47680  Biso   1.000  O
  O93      1.0000 0.02050  0.64940  0.45360  Biso   1.000  O
  O94      1.0000 0.42330  0.65470  0.54760  Biso   1.000  O
  O95      1.0000 0.34800  0.76840  0.58750  Biso   1.000  O
  O96      1.0000 0.40540  0.47720  0.63650  Biso   1.000  O
  O97      1.0000 0.18010  0.81760  0.59010  Biso   1.000  O
  O98      1.0000 0.99650  0.74520  0.36980  Biso   1.000  O
  O99      1.0000 0.19920  0.88510  0.41550  Biso   1.000  O
  O100     1.0000 0.64040  0.65560  0.71770  Biso   1.000  O
  O101     1.0000 0.73350  0.40020  0.64580  Biso   1.000  O
  O102     1.0000 0.32720  0.50760  0.53510  Biso   1.000  O
  O103     1.0000 0.11490  0.54040  0.41360  Biso   1.000  O
  O104     1.0000 0.30710  0.75200  0.37020  Biso   1.000  O
  O105     1.0000 0.96950  0.59410  0.53870  Biso   1.000  O
  O106     1.0000 0.68700  0.50090  0.56610  Biso   1.000  O
  O107     1.0000 0.44360  0.36980  0.70620  Biso   1.000  O
  O108     1.0000 0.40240  0.88370  0.52980  Biso   1.000  O
  O109     1.0000 0.47900  0.55030  0.74350  Biso   1.000  O
  H9       1.0000 0.50450  0.58830  0.76170  Biso   1.000  H
  C5       1.0000 0.54490  0.51120  0.71940  Biso   1.000  C
  C6       1.0000 0.62420  0.47310  0.75840  Biso   1.000  C
  H10      1.0000 0.66600  0.44810  0.74170  Biso   1.000  H
  H11      1.0000 0.60140  0.43180  0.77700  Biso   1.000  H
  H12      1.0000 0.65580  0.51520  0.78120  Biso   1.000  H
  O110     1.0000 0.38200  0.21120  0.67340  Biso   1.000  O
  O111     1.0000 0.44440  0.17800  0.69360  Biso   1.000  O
  W34      1.0000 0.56264  0.27557  0.95023  Biso   1.000  W
  W35      1.0000 0.75176  0.21858  0.89216  Biso   1.000  W
  W36      1.0000 0.58577  0.26642  0.07486  Biso   1.000  W
  W37      1.0000 0.93359  0.13245  0.97611  Biso   1.000  W
  W38      1.0000 0.89766  0.34035  0.97664  Biso   1.000  W
  W39      1.0000 0.95847  0.12283  0.11118  Biso   1.000  W
  W40      1.0000 0.80208  0.19752  0.16761  Biso   1.000  W
  W41      1.0000 0.70639  0.40629  0.02814  Biso   1.000  W
  W42      1.0000 0.92098  0.33109  0.11508  Biso   1.000  W
  W43      1.0000 0.59480  0.06078  0.91777  Biso   1.000  W
  W44      1.0000 0.37207  0.95274  0.89692  Biso   1.000  W
  Nd7      1.0000 0.80234  0.93436  0.02554  Biso   1.000  Nd
  Nd8      1.0000 0.65099  0.78267  0.76197  Biso   1.000  Nd
  As4      1.0000 0.75749  0.17761  0.02740  Biso   1.000  As
  P7       1.0000 0.51700  0.93290  0.82277  Biso   1.000  P
  P8       1.0000 0.41240  0.08950  0.81616  Biso   1.000  P
  O112     1.0000 0.68560  0.11880  0.89490  Biso   1.000  O
  O113     1.0000 0.91260  0.13670  0.17130  Biso   1.000  O
  O114     1.0000 0.81960  0.21550  0.98360  Biso   1.000  O
  O115     1.0000 0.49970  0.12170  0.85540  Biso   1.000  O
  O116     1.0000 0.93350  0.33950  0.04830  Biso   1.000  O
  O117     1.0000 0.34960  0.04220  0.84350  Biso   1.000  O
  O118     1.0000 0.48590  0.00650  0.92430  Biso   1.000  O
  O119     1.0000 0.61570  0.37750  0.06710  Biso   1.000  O
  O120     1.0000 0.40200  0.85510  0.93170  Biso   1.000  O
  O121     1.0000 0.86190  0.15800  0.90580  Biso   1.000  O
  O122     1.0000 0.83600  0.20690  0.08580  Biso   1.000  O
  O123     1.0000 0.86830  0.04540  0.98220  Biso   1.000  O
  O124     1.0000 0.44550  0.89620  0.84700  Biso   1.000  O
  O125     1.0000 0.86600  0.29900  0.16840  Biso   1.000  O
  O126     1.0000 0.97570  0.25600  0.97210  Biso   1.000  O
  O127     1.0000 0.78270  0.39220  0.98710  Biso   1.000  O
  O128     1.0000 0.50990  0.26260  0.00600  Biso   1.000  O
  O129     1.0000 0.68500  0.26610  0.02320  Biso   1.000  O
  O130     1.0000 0.97950  0.14940  0.04640  Biso   1.000  O
  O131     1.0000 0.57670  0.15470  0.95240  Biso   1.000  O
  O132     1.0000 0.65200  0.26840  0.91250  Biso   1.000  O
  O133     1.0000 0.59460  0.97720  0.86350  Biso   1.000  O
  O134     1.0000 0.81990  0.31760  0.90990  Biso   1.000  O
  O135     1.0000 0.00350  0.24520  0.13020  Biso   1.000  O
  O136     1.0000 0.80080  0.38510  0.08450  Biso   1.000  O
  O137     1.0000 0.35960  0.15560  0.78230  Biso   1.000  O
  O138     1.0000 0.26650  0.90020  0.85420  Biso   1.000  O
  O139     1.0000 0.67280  0.00760  0.96490  Biso   1.000  O
  O140     1.0000 0.88510  0.04040  0.08640  Biso   1.000  O
  O141     1.0000 0.69290  0.25200  0.12980  Biso   1.000  O
  O142     1.0000 0.03050  0.09410  0.96130  Biso   1.000  O
  O143     1.0000 0.31300  0.00090  0.93390  Biso   1.000  O
  O144     1.0000 0.55640  0.86980  0.79380  Biso   1.000  O
  O145     1.0000 0.59760  0.38370  0.97020  Biso   1.000  O
  O146     1.0000 0.52100  0.05030  0.75650  Biso   1.000  O
  H13      1.0000 0.49550  0.08830  0.73830  Biso   1.000  H
  C7       1.0000 0.45510  0.01120  0.78060  Biso   1.000  C
  C8       1.0000 0.37580  0.97310  0.74160  Biso   1.000  C
  H14      1.0000 0.33400  0.94810  0.75830  Biso   1.000  H
  H15      1.0000 0.39860  0.93180  0.72300  Biso   1.000  H
  H16      1.0000 0.34420  0.01520  0.71880  Biso   1.000  H
  O147     1.0000 0.61800  0.71120  0.82660  Biso   1.000  O
  O148     1.0000 0.55560  0.67800  0.80640  Biso   1.000  O
