data_image0
_cell_length_a       11.9807
_cell_length_b       5.2345
_cell_length_c       21.796
_cell_angle_alpha    90
_cell_angle_beta     99.274
_cell_angle_gamma    90

_symmetry_space_group_name_H-M    "P 1"
_symmetry_int_tables_number       1

loop_
  _symmetry_equiv_pos_as_xyz
  'x, y, z'

loop_
  _atom_site_label
  _atom_site_occupancy
  _atom_site_fract_x
  _atom_site_fract_y
  _atom_site_fract_z
  _atom_site_thermal_displace_type
  _atom_site_B_iso_or_equiv
  _atom_site_type_symbol
  Na1      1.0000 0.58930  0.69400  0.02910  Biso   1.000  Na
  Na2      1.0000 0.32290  0.72300  0.06850  Biso   1.000  Na
  Na3      1.0000 0.11040  0.17000  0.96800  Biso   1.000  Na
  Na4      1.0000 0.15760  0.77600  0.18970  Biso   1.000  Na
  O1       1.0000 0.48750  0.99000  0.07220  Biso   1.000  O
  O2       1.0000 0.26050  0.89700  0.96810  Biso   1.000  O
  O3       1.0000 0.25460  0.47500  0.96600  Biso   1.000  O
  O4       1.0000 0.46780  0.42000  0.07700  Biso   1.000  O
  O5       1.0000 0.21050  0.47900  0.12540  Biso   1.000  O
  N1       1.0000 0.37400  0.31600  0.25310  Biso   1.000  N
  H1       1.0000 0.38550  0.16610  0.27150  Biso   1.000  H
  O6       1.0000 0.33400  0.73000  0.26540  Biso   1.000  O
  O7       1.0000 0.25330  0.04300  0.13150  Biso   1.000  O
  N2       1.0000 0.23480  0.49300  0.77090  Biso   1.000  N
  H2       1.0000 0.23190  0.64600  0.75410  Biso   1.000  H
  O8       1.0000 0.02030  0.30800  0.05180  Biso   1.000  O
  H3       1.0000 0.07990  0.35370  0.08710  Biso   1.000  H
  H4       1.0000 0.97810  0.16120  0.06530  Biso   1.000  H
  C1       1.0000 0.31800  0.40200  0.54770  Biso   1.000  C
  C2       1.0000 0.24900  0.70100  0.93930  Biso   1.000  C
  C3       1.0000 0.39600  0.28200  0.39050  Biso   1.000  C
  H5       1.0000 0.43950  0.16010  0.37240  Biso   1.000  H
  C4       1.0000 0.32700  0.42000  0.48110  Biso   1.000  C
  C5       1.0000 0.47840  0.20800  0.10070  Biso   1.000  C
  C6       1.0000 0.28300  0.34500  0.67410  Biso   1.000  C
  C7       1.0000 0.34800  0.51100  0.28560  Biso   1.000  C
  C8       1.0000 0.47900  0.18400  0.17100  Biso   1.000  C
  H6       1.0000 0.47090  0.00260  0.18220  Biso   1.000  H
  H7       1.0000 0.55220  0.24740  0.19390  Biso   1.000  H
  C9       1.0000 0.34400  0.46800  0.35370  Biso   1.000  C
  C10      1.0000 0.22500  0.71900  0.86850  Biso   1.000  C
  H8       1.0000 0.29020  0.80660  0.85450  Biso   1.000  H
  H9       1.0000 0.15800  0.82860  0.85660  Biso   1.000  H
  C11      1.0000 0.38500  0.33600  0.18820  Biso   1.000  C
  H10      1.0000 0.40280  0.51900  0.18100  Biso   1.000  H
  C12      1.0000 0.26600  0.29200  0.73740  Biso   1.000  C
  O9       1.0000 0.30800  0.07400  0.76600  Biso   1.000  O
  C13      1.0000 0.38900  0.25900  0.45160  Biso   1.000  C
  H11      1.0000 0.42980  0.12450  0.47470  Biso   1.000  H
  O10      1.0000 0.02500  0.36600  0.87760  Biso   1.000  O
  C14      1.0000 0.27700  0.63500  0.38340  Biso   1.000  C
  H12      1.0000 0.23530  0.76470  0.35940  Biso   1.000  H
  C15      1.0000 0.27000  0.27500  0.14330  Biso   1.000  C
  C16      1.0000 0.27000  0.61800  0.44500  Biso   1.000  C
  H13      1.0000 0.22720  0.74010  0.46360  Biso   1.000  H
  C17      1.0000 0.20600  0.46600  0.83360  Biso   1.000  C
  H14      1.0000 0.24680  0.32170  0.85720  Biso   1.000  H
  O11      1.0000 0.00500  0.44900  0.77520  Biso   1.000  O
  C18      1.0000 0.27700  0.59600  0.58200  Biso   1.000  C
  H15      1.0000 0.25850  0.75390  0.56130  Biso   1.000  H
  C19      1.0000 0.32900  0.14900  0.64200  Biso   1.000  C
  H16      1.0000 0.35220  0.99570  0.66320  Biso   1.000  H
  C20      1.0000 0.26000  0.57800  0.64400  Biso   1.000  C
  H17      1.0000 0.23310  0.72010  0.66420  Biso   1.000  H
  C21      1.0000 0.34200  0.16900  0.57900  Biso   1.000  C
  H18      1.0000 0.36770  0.02650  0.55800  Biso   1.000  H
  C22      1.0000 0.07100  0.43300  0.82610  Biso   1.000  C
  C23      1.0000 0.39200  0.25200  0.58900  Biso   1.000  C
  H19      1.0000 0.45490  0.17120  0.57570  Biso   1.000  H
  C24      1.0000 0.22800  0.52200  0.57000  Biso   1.000  C
  H20      1.0000 0.18090  0.63680  0.54380  Biso   1.000  H
  C25      1.0000 0.20600  0.47500  0.63000  Biso   1.000  C
  H21      1.0000 0.13750  0.53360  0.64130  Biso   1.000  H
  C26      1.0000 0.37200  0.22000  0.65000  Biso   1.000  C
  H22      1.0000 0.42060  0.11470  0.67710  Biso   1.000  H
  O12      1.0000 0.24600  0.08200  0.75500  Biso   1.000  O
  Na5      1.0000 0.41070  0.19400  0.97090  Biso   1.000  Na
  Na6      1.0000 0.67710  0.22300  0.93150  Biso   1.000  Na
  Na7      1.0000 0.88960  0.67000  0.03200  Biso   1.000  Na
  Na8      1.0000 0.84240  0.27600  0.81030  Biso   1.000  Na
  O13      1.0000 0.51250  0.49000  0.92780  Biso   1.000  O
  O14      1.0000 0.73950  0.39700  0.03190  Biso   1.000  O
  O15      1.0000 0.74540  0.97500  0.03400  Biso   1.000  O
  O16      1.0000 0.53220  0.92000  0.92300  Biso   1.000  O
  O17      1.0000 0.78950  0.97900  0.87460  Biso   1.000  O
  N3       1.0000 0.62600  0.81600  0.74690  Biso   1.000  N
  H23      1.0000 0.61450  0.66610  0.72850  Biso   1.000  H
  O18      1.0000 0.66600  0.23000  0.73460  Biso   1.000  O
  O19      1.0000 0.74670  0.54300  0.86850  Biso   1.000  O
  N4       1.0000 0.76520  0.99300  0.22910  Biso   1.000  N
  H24      1.0000 0.76810  0.14600  0.24590  Biso   1.000  H
  O20      1.0000 0.97970  0.80800  0.94820  Biso   1.000  O
  H25      1.0000 0.92010  0.85370  0.91290  Biso   1.000  H
  H26      1.0000 0.02190  0.66120  0.93470  Biso   1.000  H
  C27      1.0000 0.68200  0.90200  0.45230  Biso   1.000  C
  C28      1.0000 0.75100  0.20100  0.06070  Biso   1.000  C
  C29      1.0000 0.60400  0.78200  0.60950  Biso   1.000  C
  H27      1.0000 0.56050  0.66010  0.62760  Biso   1.000  H
  C30      1.0000 0.67300  0.92000  0.51890  Biso   1.000  C
  C31      1.0000 0.52160  0.70800  0.89930  Biso   1.000  C
  C32      1.0000 0.71700  0.84500  0.32590  Biso   1.000  C
  C33      1.0000 0.65200  0.01100  0.71440  Biso   1.000  C
  C34      1.0000 0.52100  0.68400  0.82900  Biso   1.000  C
  H28      1.0000 0.52910  0.50260  0.81780  Biso   1.000  H
  H29      1.0000 0.44780  0.74740  0.80610  Biso   1.000  H
  C35      1.0000 0.65600  0.96800  0.64630  Biso   1.000  C
  C36      1.0000 0.77500  0.21900  0.13150  Biso   1.000  C
  H30      1.0000 0.70980  0.30660  0.14550  Biso   1.000  H
  H31      1.0000 0.84200  0.32860  0.14340  Biso   1.000  H
  C37      1.0000 0.61500  0.83600  0.81180  Biso   1.000  C
  H32      1.0000 0.59720  0.01900  0.81900  Biso   1.000  H
  C38      1.0000 0.73400  0.79200  0.26260  Biso   1.000  C
  O21      1.0000 0.69200  0.57400  0.23400  Biso   1.000  O
  C39      1.0000 0.61100  0.75900  0.54840  Biso   1.000  C
  H33      1.0000 0.57020  0.62450  0.52530  Biso   1.000  H
  O22      1.0000 0.97500  0.86600  0.12240  Biso   1.000  O
  C40      1.0000 0.72300  0.13500  0.61660  Biso   1.000  C
  H34      1.0000 0.76470  0.26470  0.64060  Biso   1.000  H
  C41      1.0000 0.73000  0.77500  0.85670  Biso   1.000  C
  C42      1.0000 0.73000  0.11800  0.55500  Biso   1.000  C
  H35      1.0000 0.77280  0.24010  0.53640  Biso   1.000  H
  C43      1.0000 0.79400  0.96600  0.16640  Biso   1.000  C
  H36      1.0000 0.75320  0.82170  0.14280  Biso   1.000  H
  O23      1.0000 0.99500  0.94900  0.22480  Biso   1.000  O
  C44      1.0000 0.72300  0.09600  0.41800  Biso   1.000  C
  H37      1.0000 0.74150  0.25390  0.43870  Biso   1.000  H
  C45      1.0000 0.67100  0.64900  0.35800  Biso   1.000  C
  H38      1.0000 0.64780  0.49570  0.33680  Biso   1.000  H
  C46      1.0000 0.74000  0.07800  0.35600  Biso   1.000  C
  H39      1.0000 0.76690  0.22010  0.33580  Biso   1.000  H
  C47      1.0000 0.65800  0.66900  0.42100  Biso   1.000  C
  H40      1.0000 0.63230  0.52650  0.44200  Biso   1.000  H
  C48      1.0000 0.92900  0.93300  0.17390  Biso   1.000  C
  C49      1.0000 0.60800  0.75200  0.41100  Biso   1.000  C
  H41      1.0000 0.54510  0.67120  0.42430  Biso   1.000  H
  C50      1.0000 0.77200  0.02200  0.43000  Biso   1.000  C
  H42      1.0000 0.81910  0.13680  0.45620  Biso   1.000  H
  C51      1.0000 0.79400  0.97500  0.37000  Biso   1.000  C
  H43      1.0000 0.86250  0.03360  0.35870  Biso   1.000  H
  C52      1.0000 0.62800  0.72000  0.35000  Biso   1.000  C
  H44      1.0000 0.57940  0.61470  0.32290  Biso   1.000  H
  O24      1.0000 0.75400  0.58200  0.24500  Biso   1.000  O
