data_image0
_cell_length_a       10.2454
_cell_length_b       33.542
_cell_length_c       13.4739
_cell_angle_alpha    90
_cell_angle_beta     90
_cell_angle_gamma    90

_symmetry_space_group_name_H-M    "P 1"
_symmetry_int_tables_number       1

loop_
  _symmetry_equiv_pos_as_xyz
  'x, y, z'

loop_
  _atom_site_label
  _atom_site_occupancy
  _atom_site_fract_x
  _atom_site_fract_y
  _atom_site_fract_z
  _atom_site_thermal_displace_type
  _atom_site_B_iso_or_equiv
  _atom_site_type_symbol
  C1       1.0000 0.25900  0.20500  0.26780  Biso   1.000  C
  H1       1.0000 0.28010  0.20140  0.19980  Biso   1.000  H
  C2       1.0000 0.26510  0.22347  0.41500  Biso   1.000  C
  H2       1.0000 0.29070  0.23600  0.47520  Biso   1.000  H
  C3       1.0000 0.26010  0.14553  0.63200  Biso   1.000  C
  H3       1.0000 0.28030  0.12880  0.57720  Biso   1.000  H
  C4       1.0000 0.26950  0.17465  0.76800  Biso   1.000  C
  H4       1.0000 0.29810  0.18330  0.83150  Biso   1.000  H
  C5       1.0000 0.25570  0.04642  0.17770  Biso   1.000  C
  H5       1.0000 0.27210  0.02330  0.13900  Biso   1.000  H
  C6       1.0000 0.27140  0.09097  0.28440  Biso   1.000  C
  H6       1.0000 0.30150  0.10670  0.33840  Biso   1.000  H
  C7       1.0000 0.24520  0.08130  0.89830  Biso   1.000  C
  H7       1.0000 0.22980  0.10880  0.91010  Biso   1.000  H
  C8       1.0000 0.22770  0.01959  0.89930  Biso   1.000  C
  H8       1.0000 0.19680  0.99330  0.91150  Biso   1.000  H
  N1       1.0000 0.15640  0.18902  0.31020  Biso   1.000  N
  N2       1.0000 0.16010  0.20083  0.40730  Biso   1.000  N
  N3       1.0000 0.33170  0.22705  0.33080  Biso   1.000  N
  N4       1.0000 0.15560  0.16898  0.63540  Biso   1.000  N
  N5       1.0000 0.16130  0.18806  0.72490  Biso   1.000  N
  N6       1.0000 0.33410  0.14787  0.71390  Biso   1.000  N
  N7       1.0000 0.15550  0.06994  0.16320  Biso   1.000  N
  N8       1.0000 0.16500  0.09931  0.23340  Biso   1.000  N
  N9       1.0000 0.33310  0.05812  0.25260  Biso   1.000  N
  N10      1.0000 0.34540  0.06806  0.84690  Biso   1.000  N
  N11      1.0000 0.33450  0.02736  0.84800  Biso   1.000  N
  N12      1.0000 0.16730  0.05247  0.93230  Biso   1.000  N
  N13      1.0000 0.97680  0.09068  0.45170  Biso   1.000  N
  O1       1.0000 0.02860  0.12345  0.42990  Biso   1.000  O
  O2       1.0000 0.03500  0.05910  0.42930  Biso   1.000  O
  O3       1.0000 0.87220  0.08830  0.49350  Biso   1.000  O
  C9       1.0000 0.75900  0.70500  0.26780  Biso   1.000  C
  H9       1.0000 0.78010  0.70140  0.19980  Biso   1.000  H
  C10      1.0000 0.76510  0.72347  0.41500  Biso   1.000  C
  H10      1.0000 0.79070  0.73600  0.47520  Biso   1.000  H
  C11      1.0000 0.76010  0.64553  0.63200  Biso   1.000  C
  H11      1.0000 0.78030  0.62880  0.57720  Biso   1.000  H
  C12      1.0000 0.76950  0.67465  0.76800  Biso   1.000  C
  H12      1.0000 0.79810  0.68330  0.83150  Biso   1.000  H
  C13      1.0000 0.75570  0.54642  0.17770  Biso   1.000  C
  H13      1.0000 0.77210  0.52330  0.13900  Biso   1.000  H
  C14      1.0000 0.77140  0.59097  0.28440  Biso   1.000  C
  H14      1.0000 0.80150  0.60670  0.33840  Biso   1.000  H
  C15      1.0000 0.74520  0.58130  0.89830  Biso   1.000  C
  H15      1.0000 0.72980  0.60880  0.91010  Biso   1.000  H
  C16      1.0000 0.72770  0.51959  0.89930  Biso   1.000  C
  H16      1.0000 0.69680  0.49330  0.91150  Biso   1.000  H
  N14      1.0000 0.65640  0.68902  0.31020  Biso   1.000  N
  N15      1.0000 0.66010  0.70083  0.40730  Biso   1.000  N
  N16      1.0000 0.83170  0.72705  0.33080  Biso   1.000  N
  N17      1.0000 0.65560  0.66898  0.63540  Biso   1.000  N
  N18      1.0000 0.66130  0.68806  0.72490  Biso   1.000  N
  N19      1.0000 0.83410  0.64787  0.71390  Biso   1.000  N
  N20      1.0000 0.65550  0.56994  0.16320  Biso   1.000  N
  N21      1.0000 0.66500  0.59931  0.23340  Biso   1.000  N
  N22      1.0000 0.83310  0.55812  0.25260  Biso   1.000  N
  N23      1.0000 0.84540  0.56806  0.84690  Biso   1.000  N
  N24      1.0000 0.83450  0.52736  0.84800  Biso   1.000  N
  N25      1.0000 0.66730  0.55247  0.93230  Biso   1.000  N
  N26      1.0000 0.47680  0.59068  0.45170  Biso   1.000  N
  O4       1.0000 0.52860  0.62345  0.42990  Biso   1.000  O
  O5       1.0000 0.53500  0.55910  0.42930  Biso   1.000  O
  O6       1.0000 0.37220  0.58830  0.49350  Biso   1.000  O
  C17      1.0000 0.74100  0.79500  0.76780  Biso   1.000  C
  H17      1.0000 0.71990  0.79860  0.69980  Biso   1.000  H
  C18      1.0000 0.73490  0.77653  0.91500  Biso   1.000  C
  H18      1.0000 0.70930  0.76400  0.97520  Biso   1.000  H
  C19      1.0000 0.73990  0.85447  0.13200  Biso   1.000  C
  H19      1.0000 0.71970  0.87120  0.07720  Biso   1.000  H
  C20      1.0000 0.73050  0.82535  0.26800  Biso   1.000  C
  H20      1.0000 0.70190  0.81670  0.33150  Biso   1.000  H
  C21      1.0000 0.74430  0.95358  0.67770  Biso   1.000  C
  H21      1.0000 0.72790  0.97670  0.63900  Biso   1.000  H
  C22      1.0000 0.72860  0.90903  0.78440  Biso   1.000  C
  H22      1.0000 0.69850  0.89330  0.83840  Biso   1.000  H
  C23      1.0000 0.75480  0.91870  0.39830  Biso   1.000  C
  H23      1.0000 0.77020  0.89120  0.41010  Biso   1.000  H
  C24      1.0000 0.77230  0.98041  0.39930  Biso   1.000  C
  H24      1.0000 0.80320  0.00670  0.41150  Biso   1.000  H
  N27      1.0000 0.84360  0.81098  0.81020  Biso   1.000  N
  N28      1.0000 0.83990  0.79917  0.90730  Biso   1.000  N
  N29      1.0000 0.66830  0.77295  0.83080  Biso   1.000  N
  N30      1.0000 0.84440  0.83102  0.13540  Biso   1.000  N
  N31      1.0000 0.83870  0.81194  0.22490  Biso   1.000  N
  N32      1.0000 0.66590  0.85213  0.21390  Biso   1.000  N
  N33      1.0000 0.84450  0.93006  0.66320  Biso   1.000  N
  N34      1.0000 0.83500  0.90069  0.73340  Biso   1.000  N
  N35      1.0000 0.66690  0.94188  0.75260  Biso   1.000  N
  N36      1.0000 0.65460  0.93194  0.34690  Biso   1.000  N
  N37      1.0000 0.66550  0.97264  0.34800  Biso   1.000  N
  N38      1.0000 0.83270  0.94753  0.43230  Biso   1.000  N
  N39      1.0000 0.02320  0.90932  0.95170  Biso   1.000  N
  O7       1.0000 0.97140  0.87655  0.92990  Biso   1.000  O
  O8       1.0000 0.96500  0.94090  0.92930  Biso   1.000  O
  O9       1.0000 0.12780  0.91170  0.99350  Biso   1.000  O
  C25      1.0000 0.24100  0.29500  0.76780  Biso   1.000  C
  H25      1.0000 0.21990  0.29860  0.69980  Biso   1.000  H
  C26      1.0000 0.23490  0.27653  0.91500  Biso   1.000  C
  H26      1.0000 0.20930  0.26400  0.97520  Biso   1.000  H
  C27      1.0000 0.23990  0.35447  0.13200  Biso   1.000  C
  H27      1.0000 0.21970  0.37120  0.07720  Biso   1.000  H
  C28      1.0000 0.23050  0.32535  0.26800  Biso   1.000  C
  H28      1.0000 0.20190  0.31670  0.33150  Biso   1.000  H
  C29      1.0000 0.24430  0.45358  0.67770  Biso   1.000  C
  H29      1.0000 0.22790  0.47670  0.63900  Biso   1.000  H
  C30      1.0000 0.22860  0.40903  0.78440  Biso   1.000  C
  H30      1.0000 0.19850  0.39330  0.83840  Biso   1.000  H
  C31      1.0000 0.25480  0.41870  0.39830  Biso   1.000  C
  H31      1.0000 0.27020  0.39120  0.41010  Biso   1.000  H
  C32      1.0000 0.27230  0.48041  0.39930  Biso   1.000  C
  H32      1.0000 0.30320  0.50670  0.41150  Biso   1.000  H
  N40      1.0000 0.34360  0.31098  0.81020  Biso   1.000  N
  N41      1.0000 0.33990  0.29917  0.90730  Biso   1.000  N
  N42      1.0000 0.16830  0.27295  0.83080  Biso   1.000  N
  N43      1.0000 0.34440  0.33102  0.13540  Biso   1.000  N
  N44      1.0000 0.33870  0.31194  0.22490  Biso   1.000  N
  N45      1.0000 0.16590  0.35213  0.21390  Biso   1.000  N
  N46      1.0000 0.34450  0.43006  0.66320  Biso   1.000  N
  N47      1.0000 0.33500  0.40069  0.73340  Biso   1.000  N
  N48      1.0000 0.16690  0.44188  0.75260  Biso   1.000  N
  N49      1.0000 0.15460  0.43194  0.34690  Biso   1.000  N
  N50      1.0000 0.16550  0.47264  0.34800  Biso   1.000  N
  N51      1.0000 0.33270  0.44753  0.43230  Biso   1.000  N
  N52      1.0000 0.52320  0.40932  0.95170  Biso   1.000  N
  O10      1.0000 0.47140  0.37655  0.92990  Biso   1.000  O
  O11      1.0000 0.46500  0.44090  0.92930  Biso   1.000  O
  O12      1.0000 0.62780  0.41170  0.99350  Biso   1.000  O
  C33      1.0000 0.25900  0.79500  0.76780  Biso   1.000  C
  H33      1.0000 0.28010  0.79860  0.69980  Biso   1.000  H
  C34      1.0000 0.26510  0.77653  0.91500  Biso   1.000  C
  H34      1.0000 0.29070  0.76400  0.97520  Biso   1.000  H
  C35      1.0000 0.26010  0.85447  0.13200  Biso   1.000  C
  H35      1.0000 0.28030  0.87120  0.07720  Biso   1.000  H
  C36      1.0000 0.26950  0.82535  0.26800  Biso   1.000  C
  H36      1.0000 0.29810  0.81670  0.33150  Biso   1.000  H
  C37      1.0000 0.25570  0.95358  0.67770  Biso   1.000  C
  H37      1.0000 0.27210  0.97670  0.63900  Biso   1.000  H
  C38      1.0000 0.27140  0.90903  0.78440  Biso   1.000  C
  H38      1.0000 0.30150  0.89330  0.83840  Biso   1.000  H
  C39      1.0000 0.24520  0.91870  0.39830  Biso   1.000  C
  H39      1.0000 0.22980  0.89120  0.41010  Biso   1.000  H
  C40      1.0000 0.22770  0.98041  0.39930  Biso   1.000  C
  H40      1.0000 0.19680  0.00670  0.41150  Biso   1.000  H
  N53      1.0000 0.15640  0.81098  0.81020  Biso   1.000  N
  N54      1.0000 0.16010  0.79917  0.90730  Biso   1.000  N
  N55      1.0000 0.33170  0.77295  0.83080  Biso   1.000  N
  N56      1.0000 0.15560  0.83102  0.13540  Biso   1.000  N
  N57      1.0000 0.16130  0.81194  0.22490  Biso   1.000  N
  N58      1.0000 0.33410  0.85213  0.21390  Biso   1.000  N
  N59      1.0000 0.15550  0.93006  0.66320  Biso   1.000  N
  N60      1.0000 0.16500  0.90069  0.73340  Biso   1.000  N
  N61      1.0000 0.33310  0.94188  0.75260  Biso   1.000  N
  N62      1.0000 0.34540  0.93194  0.34690  Biso   1.000  N
  N63      1.0000 0.33450  0.97264  0.34800  Biso   1.000  N
  N64      1.0000 0.16730  0.94753  0.43230  Biso   1.000  N
  N65      1.0000 0.97680  0.90932  0.95170  Biso   1.000  N
  O13      1.0000 0.02860  0.87655  0.92990  Biso   1.000  O
  O14      1.0000 0.03500  0.94090  0.92930  Biso   1.000  O
  O15      1.0000 0.87220  0.91170  0.99350  Biso   1.000  O
  C41      1.0000 0.75900  0.29500  0.76780  Biso   1.000  C
  H41      1.0000 0.78010  0.29860  0.69980  Biso   1.000  H
  C42      1.0000 0.76510  0.27653  0.91500  Biso   1.000  C
  H42      1.0000 0.79070  0.26400  0.97520  Biso   1.000  H
  C43      1.0000 0.76010  0.35447  0.13200  Biso   1.000  C
  H43      1.0000 0.78030  0.37120  0.07720  Biso   1.000  H
  C44      1.0000 0.76950  0.32535  0.26800  Biso   1.000  C
  H44      1.0000 0.79810  0.31670  0.33150  Biso   1.000  H
  C45      1.0000 0.75570  0.45358  0.67770  Biso   1.000  C
  H45      1.0000 0.77210  0.47670  0.63900  Biso   1.000  H
  C46      1.0000 0.77140  0.40903  0.78440  Biso   1.000  C
  H46      1.0000 0.80150  0.39330  0.83840  Biso   1.000  H
  C47      1.0000 0.74520  0.41870  0.39830  Biso   1.000  C
  H47      1.0000 0.72980  0.39120  0.41010  Biso   1.000  H
  C48      1.0000 0.72770  0.48041  0.39930  Biso   1.000  C
  H48      1.0000 0.69680  0.50670  0.41150  Biso   1.000  H
  N66      1.0000 0.65640  0.31098  0.81020  Biso   1.000  N
  N67      1.0000 0.66010  0.29917  0.90730  Biso   1.000  N
  N68      1.0000 0.83170  0.27295  0.83080  Biso   1.000  N
  N69      1.0000 0.65560  0.33102  0.13540  Biso   1.000  N
  N70      1.0000 0.66130  0.31194  0.22490  Biso   1.000  N
  N71      1.0000 0.83410  0.35213  0.21390  Biso   1.000  N
  N72      1.0000 0.65550  0.43006  0.66320  Biso   1.000  N
  N73      1.0000 0.66500  0.40069  0.73340  Biso   1.000  N
  N74      1.0000 0.83310  0.44188  0.75260  Biso   1.000  N
  N75      1.0000 0.84540  0.43194  0.34690  Biso   1.000  N
  N76      1.0000 0.83450  0.47264  0.34800  Biso   1.000  N
  N77      1.0000 0.66730  0.44753  0.43230  Biso   1.000  N
  N78      1.0000 0.47680  0.40932  0.95170  Biso   1.000  N
  O16      1.0000 0.52860  0.37655  0.92990  Biso   1.000  O
  O17      1.0000 0.53500  0.44090  0.92930  Biso   1.000  O
  O18      1.0000 0.37220  0.41170  0.99350  Biso   1.000  O
  C49      1.0000 0.74100  0.20500  0.26780  Biso   1.000  C
  H49      1.0000 0.71990  0.20140  0.19980  Biso   1.000  H
  C50      1.0000 0.73490  0.22347  0.41500  Biso   1.000  C
  H50      1.0000 0.70930  0.23600  0.47520  Biso   1.000  H
  C51      1.0000 0.73990  0.14553  0.63200  Biso   1.000  C
  H51      1.0000 0.71970  0.12880  0.57720  Biso   1.000  H
  C52      1.0000 0.73050  0.17465  0.76800  Biso   1.000  C
  H52      1.0000 0.70190  0.18330  0.83150  Biso   1.000  H
  C53      1.0000 0.74430  0.04642  0.17770  Biso   1.000  C
  H53      1.0000 0.72790  0.02330  0.13900  Biso   1.000  H
  C54      1.0000 0.72860  0.09097  0.28440  Biso   1.000  C
  H54      1.0000 0.69850  0.10670  0.33840  Biso   1.000  H
  C55      1.0000 0.75480  0.08130  0.89830  Biso   1.000  C
  H55      1.0000 0.77020  0.10880  0.91010  Biso   1.000  H
  C56      1.0000 0.77230  0.01959  0.89930  Biso   1.000  C
  H56      1.0000 0.80320  0.99330  0.91150  Biso   1.000  H
  N79      1.0000 0.84360  0.18902  0.31020  Biso   1.000  N
  N80      1.0000 0.83990  0.20083  0.40730  Biso   1.000  N
  N81      1.0000 0.66830  0.22705  0.33080  Biso   1.000  N
  N82      1.0000 0.84440  0.16898  0.63540  Biso   1.000  N
  N83      1.0000 0.83870  0.18806  0.72490  Biso   1.000  N
  N84      1.0000 0.66590  0.14787  0.71390  Biso   1.000  N
  N85      1.0000 0.84450  0.06994  0.16320  Biso   1.000  N
  N86      1.0000 0.83500  0.09931  0.23340  Biso   1.000  N
  N87      1.0000 0.66690  0.05812  0.25260  Biso   1.000  N
  N88      1.0000 0.65460  0.06806  0.84690  Biso   1.000  N
  N89      1.0000 0.66550  0.02736  0.84800  Biso   1.000  N
  N90      1.0000 0.83270  0.05247  0.93230  Biso   1.000  N
  N91      1.0000 0.02320  0.09068  0.45170  Biso   1.000  N
  O19      1.0000 0.97140  0.12345  0.42990  Biso   1.000  O
  O20      1.0000 0.96500  0.05910  0.42930  Biso   1.000  O
  O21      1.0000 0.12780  0.08830  0.49350  Biso   1.000  O
  C57      1.0000 0.24100  0.70500  0.26780  Biso   1.000  C
  H57      1.0000 0.21990  0.70140  0.19980  Biso   1.000  H
  C58      1.0000 0.23490  0.72347  0.41500  Biso   1.000  C
  H58      1.0000 0.20930  0.73600  0.47520  Biso   1.000  H
  C59      1.0000 0.23990  0.64553  0.63200  Biso   1.000  C
  H59      1.0000 0.21970  0.62880  0.57720  Biso   1.000  H
  C60      1.0000 0.23050  0.67465  0.76800  Biso   1.000  C
  H60      1.0000 0.20190  0.68330  0.83150  Biso   1.000  H
  C61      1.0000 0.24430  0.54642  0.17770  Biso   1.000  C
  H61      1.0000 0.22790  0.52330  0.13900  Biso   1.000  H
  C62      1.0000 0.22860  0.59097  0.28440  Biso   1.000  C
  H62      1.0000 0.19850  0.60670  0.33840  Biso   1.000  H
  C63      1.0000 0.25480  0.58130  0.89830  Biso   1.000  C
  H63      1.0000 0.27020  0.60880  0.91010  Biso   1.000  H
  C64      1.0000 0.27230  0.51959  0.89930  Biso   1.000  C
  H64      1.0000 0.30320  0.49330  0.91150  Biso   1.000  H
  N92      1.0000 0.34360  0.68902  0.31020  Biso   1.000  N
  N93      1.0000 0.33990  0.70083  0.40730  Biso   1.000  N
  N94      1.0000 0.16830  0.72705  0.33080  Biso   1.000  N
  N95      1.0000 0.34440  0.66898  0.63540  Biso   1.000  N
  N96      1.0000 0.33870  0.68806  0.72490  Biso   1.000  N
  N97      1.0000 0.16590  0.64787  0.71390  Biso   1.000  N
  N98      1.0000 0.34450  0.56994  0.16320  Biso   1.000  N
  N99      1.0000 0.33500  0.59931  0.23340  Biso   1.000  N
  N100     1.0000 0.16690  0.55812  0.25260  Biso   1.000  N
  N101     1.0000 0.15460  0.56806  0.84690  Biso   1.000  N
  N102     1.0000 0.16550  0.52736  0.84800  Biso   1.000  N
  N103     1.0000 0.33270  0.55247  0.93230  Biso   1.000  N
  N104     1.0000 0.52320  0.59068  0.45170  Biso   1.000  N
  O22      1.0000 0.47140  0.62345  0.42990  Biso   1.000  O
  O23      1.0000 0.46500  0.55910  0.42930  Biso   1.000  O
  O24      1.0000 0.62780  0.58830  0.49350  Biso   1.000  O
  Cd1      1.0000 0.00000  0.06375  0.04167  Biso   1.000  Cd
  Cd2      1.0000 0.00000  0.14543  0.25019  Biso   1.000  Cd
  Cd3      1.0000 0.00000  0.18427  0.51934  Biso   1.000  Cd
  Cd4      1.0000 0.00000  0.23077  0.78903  Biso   1.000  Cd
  C65      1.0000 0.00000  0.15322  0.92680  Biso   1.000  C
  H65      1.0000 0.00000  0.14010  0.86440  Biso   1.000  H
  C66      1.0000 0.00000  0.19756  0.03530  Biso   1.000  C
  H66      1.0000 0.00000  0.22280  0.06710  Biso   1.000  H
  N105     1.0000 0.00000  0.13417  0.01170  Biso   1.000  N
  N106     1.0000 0.00000  0.16310  0.08450  Biso   1.000  N
  N107     1.0000 0.00000  0.19301  0.93640  Biso   1.000  N
  Cd5      1.0000 0.50000  0.56375  0.04167  Biso   1.000  Cd
  Cd6      1.0000 0.50000  0.64543  0.25019  Biso   1.000  Cd
  Cd7      1.0000 0.50000  0.68427  0.51934  Biso   1.000  Cd
  Cd8      1.0000 0.50000  0.73077  0.78903  Biso   1.000  Cd
  C67      1.0000 0.50000  0.65322  0.92680  Biso   1.000  C
  H67      1.0000 0.50000  0.64010  0.86440  Biso   1.000  H
  C68      1.0000 0.50000  0.69756  0.03530  Biso   1.000  C
  H68      1.0000 0.50000  0.72280  0.06710  Biso   1.000  H
  N108     1.0000 0.50000  0.63417  0.01170  Biso   1.000  N
  N109     1.0000 0.50000  0.66310  0.08450  Biso   1.000  N
  N110     1.0000 0.50000  0.69301  0.93640  Biso   1.000  N
  Cd9      1.0000 0.00000  0.93625  0.54167  Biso   1.000  Cd
  Cd10     1.0000 0.00000  0.85457  0.75019  Biso   1.000  Cd
  Cd11     1.0000 0.00000  0.81573  0.01934  Biso   1.000  Cd
  Cd12     1.0000 0.00000  0.76923  0.28903  Biso   1.000  Cd
  C69      1.0000 0.00000  0.84678  0.42680  Biso   1.000  C
  H69      1.0000 0.00000  0.85990  0.36440  Biso   1.000  H
  C70      1.0000 0.00000  0.80244  0.53530  Biso   1.000  C
  H70      1.0000 0.00000  0.77720  0.56710  Biso   1.000  H
  N111     1.0000 0.00000  0.86583  0.51170  Biso   1.000  N
  N112     1.0000 0.00000  0.83690  0.58450  Biso   1.000  N
  N113     1.0000 0.00000  0.80699  0.43640  Biso   1.000  N
  Cd13     1.0000 0.50000  0.43625  0.54167  Biso   1.000  Cd
  Cd14     1.0000 0.50000  0.35457  0.75019  Biso   1.000  Cd
  Cd15     1.0000 0.50000  0.31573  0.01934  Biso   1.000  Cd
  Cd16     1.0000 0.50000  0.26923  0.28903  Biso   1.000  Cd
  C71      1.0000 0.50000  0.34678  0.42680  Biso   1.000  C
  H71      1.0000 0.50000  0.35990  0.36440  Biso   1.000  H
  C72      1.0000 0.50000  0.30244  0.53530  Biso   1.000  C
  H72      1.0000 0.50000  0.27720  0.56710  Biso   1.000  H
  N114     1.0000 0.50000  0.36583  0.51170  Biso   1.000  N
  N115     1.0000 0.50000  0.33690  0.58450  Biso   1.000  N
  N116     1.0000 0.50000  0.30699  0.43640  Biso   1.000  N
  Cd17     1.0000 0.50000  0.01625  0.30399  Biso   1.000  Cd
  Cd18     1.0000 0.50000  0.10457  0.76184  Biso   1.000  Cd
  C73      1.0000 0.50000  0.93230  0.03160  Biso   1.000  C
  H73      1.0000 0.50000  0.90630  0.00310  Biso   1.000  H
  C74      1.0000 0.50000  0.99343  0.04770  Biso   1.000  C
  H74      1.0000 0.50000  0.02110  0.03250  Biso   1.000  H
  N117     1.0000 0.50000  0.93831  0.12870  Biso   1.000  N
  N118     1.0000 0.50000  0.97966  0.13980  Biso   1.000  N
  N119     1.0000 0.50000  0.96502  0.97750  Biso   1.000  N
  Cd19     1.0000 0.00000  0.51625  0.30399  Biso   1.000  Cd
  Cd20     1.0000 0.00000  0.60457  0.76184  Biso   1.000  Cd
  C75      1.0000 0.00000  0.43230  0.03160  Biso   1.000  C
  H75      1.0000 0.00000  0.40630  0.00310  Biso   1.000  H
  C76      1.0000 0.00000  0.49343  0.04770  Biso   1.000  C
  H76      1.0000 0.00000  0.52110  0.03250  Biso   1.000  H
  N120     1.0000 0.00000  0.43831  0.12870  Biso   1.000  N
  N121     1.0000 0.00000  0.47966  0.13980  Biso   1.000  N
  N122     1.0000 0.00000  0.46502  0.97750  Biso   1.000  N
  Cd21     1.0000 0.50000  0.98375  0.80399  Biso   1.000  Cd
  Cd22     1.0000 0.50000  0.89543  0.26184  Biso   1.000  Cd
  C77      1.0000 0.50000  0.06770  0.53160  Biso   1.000  C
  H77      1.0000 0.50000  0.09370  0.50310  Biso   1.000  H
  C78      1.0000 0.50000  0.00657  0.54770  Biso   1.000  C
  H78      1.0000 0.50000  0.97890  0.53250  Biso   1.000  H
  N123     1.0000 0.50000  0.06169  0.62870  Biso   1.000  N
  N124     1.0000 0.50000  0.02034  0.63980  Biso   1.000  N
  N125     1.0000 0.50000  0.03498  0.47750  Biso   1.000  N
  Cd23     1.0000 0.00000  0.48375  0.80399  Biso   1.000  Cd
  Cd24     1.0000 0.00000  0.39543  0.26184  Biso   1.000  Cd
  C79      1.0000 0.00000  0.56770  0.53160  Biso   1.000  C
  H79      1.0000 0.00000  0.59370  0.50310  Biso   1.000  H
  C80      1.0000 0.00000  0.50657  0.54770  Biso   1.000  C
  H80      1.0000 0.00000  0.47890  0.53250  Biso   1.000  H
  N126     1.0000 0.00000  0.56169  0.62870  Biso   1.000  N
  N127     1.0000 0.00000  0.52034  0.63980  Biso   1.000  N
  N128     1.0000 0.00000  0.53498  0.47750  Biso   1.000  N
