#======================================================================

# CRYSTAL DATA

#----------------------------------------------------------------------

data_VESTA_phase_1


_pd_phase_name                         SIFSIX_6_Cd_i
_cell_length_a                         18.14267
_cell_length_b                         18.14267
_cell_length_c                         15.64694
_cell_angle_alpha                      90
_cell_angle_beta                       90
_cell_angle_gamma                      90
_symmetry_space_group_name_H-M         P 1
_symmetry_Int_Tables_number            1

loop_
_symmetry_equiv_pos_as_xyz
   x, y, z

loop_
   _atom_site_label
   _atom_site_fract_x
   _atom_site_fract_y
   _atom_site_fract_z
N	0.2431608917428420 0.1220806495227550 0.1283082713217275	
N	0.2568391082571583 0.3779193644772459 0.1283082713217275	
N	0.3779193644772459 0.2431608917428420 0.1283082713217275	
N	0.1220806495227550 0.2568391082571583 0.1283082713217275	
N	0.7568390812571594 0.6220806625227598 0.3716917136782749	
N	0.7431609187428406 0.8779193374772402 0.3716917136782749	
N	0.6220806625227598 0.7431609187428406 0.3716917136782749	
N	0.8779193374772402 0.7568390812571594 0.3716917136782749	
N	0.7568390812571594 0.8779193374772402 0.8716917136782742	
N	0.7431609187428406 0.6220806625227598 0.8716917136782742	
N	0.6220806625227598 0.7568390812571594 0.8716917136782742	
N	0.8779193374772402 0.7431609187428406 0.8716917136782742	
N	0.2431608917428420 0.3779193644772459 0.6283082863217258	
N	0.2568391082571583 0.1220806495227550 0.6283082863217258	
N	0.3779193644772459 0.2568391082571583 0.6283082863217258	
N	0.1220806495227550 0.2431608917428420 0.6283082863217258	
C	0.2044602204679822 0.0869108942145805 0.1892419116044088	
C	0.1958992031576935 0.0107504980057368 0.1886551080904438	
C	0.2313732321498198 0.9689800200460329 0.1253293344978501	
C	0.2728889875559436 0.0066505562293965 0.0635413629634981	
C	0.2761516878152484 0.0831890401737435 0.0659408243543633	
C	0.2260226042556606 0.8878569200090582 0.1241866416696410	
C	0.2892898145371548 0.8452625598455049 0.1211447420977778	
C	0.2854609348772345 0.7674322757832031 0.1223014902613831	
C	0.1503230028394142 0.7772528881389654 0.1249071552270454	
C	0.1558998023135128 0.8528975729528002 0.1271922440979273	
C	0.2955397395320216 0.4130891187854171 0.1892419116044088	
C	0.3041007568423031 0.4892494829942652 0.1886551080904438	
C	0.2686267678501802 0.5310199799539671 0.1253293344978501	
C	0.2271110254440540 0.4933494407705995 0.0635413629634981	
C	0.2238483261847527 0.4168109668262606 0.0659408243543633	
C	0.2739773957443395 0.6121430799909416 0.1241866416696410	
C	0.2107102264628450 0.6547374401544951 0.1211447420977778	
C	0.2145390381227667 0.7325677242167969 0.1223014902613831	
C	0.3496769831605848 0.7227471118610346 0.1249071552270454	
C	0.3441001976864873 0.6471024270471998 0.1271922440979273	
C	0.4130891187854171 0.2044602204679822 0.1892419116044088	
C	0.4892494829942652 0.1958992031576935 0.1886551080904438	
C	0.5310199799539671 0.2313732321498198 0.1253293344978501	
C	0.4933494407705995 0.2728889875559436 0.0635413629634981	
C	0.4168109668262606 0.2761516878152484 0.0659408243543633	
C	0.6121430799909418 0.2260226042556606 0.1241866416696410	
C	0.6547374401544951 0.2892898145371548 0.1211447420977778	
C	0.7325677242167969 0.2854609348772345 0.1223014902613831	
C	0.7227471118610346 0.1503230028394142 0.1249071552270454	
C	0.6471024270471998 0.1558998023135128 0.1271922440979273	
C	0.0869108942145805 0.2955397395320216 0.1892419116044088	
C	0.0107504980057368 0.3041007568423031 0.1886551080904438	
C	0.9689800200460329 0.2686267678501802 0.1253293344978501	
C	0.0066505562293965 0.2271110254440540 0.0635413629634981	
C	0.0831890401737435 0.2238483261847527 0.0659408243543633	
C	0.8878569200090582 0.2739773957443395 0.1241866416696410	
C	0.8452625598455049 0.2107102264628450 0.1211447420977778	
C	0.7674322757832031 0.2145390381227667 0.1223014902613831	
C	0.7772528881389654 0.3496769831605848 0.1249071552270454	
C	0.8528975729528002 0.3441001976864873 0.1271922440979273	
C	0.7955397925320151 0.5869108812145828 0.3107581043955926	
C	0.8041008098423037 0.5107504630057299 0.3113448609095570	
C	0.7686267678501811 0.4689800200460326 0.3746706335021471	
C	0.7271109854440579 0.5066506132293975 0.4364586410365022	
C	0.7238482861847491 0.5831890871737438 0.4340592156456332	
C	0.7739774757443391 0.3878569730090596 0.3758133503303585	
C	0.7107102124628439 0.3452625068455041 0.3788552499022216	
C	0.7145390651227655 0.2674321957832042 0.3776985097386168	
C	0.8496770101605906 0.2772528611389669 0.3750928287729534	
C	0.8441001446864859 0.3528975469527977 0.3728077879020755	
C	0.7044602074679849 0.9130891187854172 0.3107581043955926	
C	0.6958991901576963 0.9892494829942656 0.3113448609095570	
C	0.7313732321498189 0.0310199859539679 0.3746706335021471	
C	0.7728890145559421 0.9933494407705998 0.4364586410365022	
C	0.7761517138152509 0.9168110198262615 0.4340592156456332	
C	0.7260225242556609 0.1121430539909390 0.3758133503303585	
C	0.7892897875371561 0.1547374801544913 0.3788552499022216	
C	0.7854609348772345 0.2325677772167974 0.3776985097386168	
C	0.6503229898394094 0.2227471258610361 0.3750928287729534	
C	0.6558998553135141 0.1471024270472001 0.3728077879020755	
C	0.5869108812145828 0.7044602074679849 0.3107581043955925	
C	0.5107504630057299 0.6958991901576963 0.3113448609095570	
C	0.4689800200460326 0.7313732321498189 0.3746706335021471	
C	0.5066506132293975 0.7728890145559421 0.4364586410365022	
C	0.5831890871737438 0.7761517138152509 0.4340592156456332	
C	0.3878569730090596 0.7260225242556609 0.3758133503303585	
C	0.3452625068455041 0.7892897875371561 0.3788552499022216	
C	0.2674321957832042 0.7854609348772345 0.3776985097386168	
C	0.2772528611389669 0.6503229898394094 0.3750928287729534	
C	0.3528975469527977 0.6558998553135141 0.3728077879020755	
C	0.9130891187854172 0.7955397925320151 0.3107581043955926	
C	0.9892494829942656 0.8041008098423037 0.3113448609095570	
C	0.0310199859539679 0.7686267678501811 0.3746706335021471	
C	0.9933494407705998 0.7271109854440579 0.4364586410365022	
C	0.9168110198262615 0.7238482861847491 0.4340592156456332	
C	0.1121430539909390 0.7739774757443391 0.3758133503303585	
C	0.1547374801544913 0.7107102124628439 0.3788552499022216	
C	0.2325677772167974 0.7145390651227655 0.3776985097386168	
C	0.2227471258610361 0.8496770101605906 0.3750928287729534	
C	0.1471024270472001 0.8441001446864859 0.3728077879020755	
C	0.7955397925320151 0.9130891187854172 0.8107580723955901	
C	0.8041008098423037 0.9892494829942656 0.8113449239095588	
C	0.7686267678501811 0.0310199859539679 0.8746706975021455	
C	0.7271109854440579 0.9933494407705998 0.9364586100365033	
C	0.7238482861847491 0.9168110198262615 0.9340591836456299	
C	0.7739774757443391 0.1121430539909390 0.8758133503303587	
C	0.7107102124628439 0.1547374801544913 0.8788552819022240	
C	0.7145390651227655 0.2325677772167974 0.8776985417386127	
C	0.8496770101605906 0.2227471258610361 0.8750928917729546	
C	0.8441001446864859 0.1471024270472001 0.8728078199020709	
C	0.7044602074679849 0.5869108812145828 0.8107580723955901	
C	0.6958991901576963 0.5107504630057299 0.8113449239095588	
C	0.7313732321498189 0.4689800200460326 0.8746706975021455	
C	0.7728890145559421 0.5066506132293975 0.9364586100365033	
C	0.7761517138152509 0.5831890871737438 0.9340591836456299	
C	0.7260225242556609 0.3878569730090596 0.8758133503303587	
C	0.7892897875371561 0.3452625068455041 0.8788552819022240	
C	0.7854609348772345 0.2674321957832042 0.8776985417386127	
C	0.6503229898394094 0.2772528611389669 0.8750928917729546	
C	0.6558998553135141 0.3528975469527977 0.8728078199020709	
C	0.5869108812145828 0.7955397925320151 0.8107580723955901	
C	0.5107504630057299 0.8041008098423037 0.8113449239095588	
C	0.4689800200460326 0.7686267678501811 0.8746706975021455	
C	0.5066506132293975 0.7271109854440579 0.9364586100365033	
C	0.5831890871737438 0.7238482861847491 0.9340591836456299	
C	0.3878569730090596 0.7739774757443391 0.8758133503303587	
C	0.3452625068455041 0.7107102124628439 0.8788552819022240	
C	0.2674321957832042 0.7145390651227655 0.8776985417386127	
C	0.2772528611389669 0.8496770101605906 0.8750928917729546	
C	0.3528975469527977 0.8441001446864859 0.8728078199020709	
C	0.9130891187854172 0.7044602074679849 0.8107580723955901	
C	0.9892494829942656 0.6958991901576963 0.8113449239095588	
C	0.0310199859539679 0.7313732321498189 0.8746706975021455	
C	0.9933494407705998 0.7728890145559421 0.9364586100365033	
C	0.9168110198262615 0.7761517138152509 0.9340591836456299	
C	0.1121430539909390 0.7260225242556609 0.8758133503303587	
C	0.1547374801544913 0.7892897875371561 0.8788552819022240	
C	0.2325677772167974 0.7854609348772345 0.8776985417386127	
C	0.2227471258610361 0.6503229898394094 0.8750928917729546	
C	0.1471024270472001 0.6558998553135141 0.8728078199020709	
C	0.2044602204679822 0.4130891187854171 0.6892419276044099	
C	0.1958992031576935 0.4892494829942652 0.6886550760904412	
C	0.2313732321498198 0.5310199799539671 0.6253293024978545	
C	0.2728889875559436 0.4933494407705995 0.5635413899634967	
C	0.2761516878152484 0.4168109668262606 0.5659408163543701	
C	0.2260226042556606 0.6121430799909416 0.6241866496696413	
C	0.2892898145371548 0.6547374401544951 0.6211447180977760	
C	0.2854609348772345 0.7325677242167969 0.6223014582613873	
C	0.1503230028394142 0.7227471118610346 0.6249071082270454	
C	0.1558998023135128 0.6471024270471998 0.6271921800979291	
C	0.2955397395320216 0.0869108942145805 0.6892419276044099	
C	0.3041007568423031 0.0107504980057368 0.6886550760904412	
C	0.2686267678501802 0.9689800200460329 0.6253293024978545	
C	0.2271110254440540 0.0066505562293965 0.5635413899634967	
C	0.2238483261847528 0.0831890401737435 0.5659408163543701	
C	0.2739773957443395 0.8878569200090582 0.6241866496696413	
C	0.2107102264628450 0.8452625598455049 0.6211447180977760	
C	0.2145390381227667 0.7674322757832031 0.6223014582613873	
C	0.3496769831605848 0.7772528881389654 0.6249071082270454	
C	0.3441001976864873 0.8528975729528002 0.6271921800979291	
C	0.4130891187854171 0.2955397395320216 0.6892419276044099	
C	0.4892494829942652 0.3041007568423031 0.6886550760904412	
C	0.5310199799539671 0.2686267678501802 0.6253293024978545	
C	0.4933494407705995 0.2271110254440540 0.5635413899634967	
C	0.4168109668262606 0.2238483261847528 0.5659408163543701	
C	0.6121430799909418 0.2739773957443395 0.6241866496696413	
C	0.6547374401544951 0.2107102264628450 0.6211447180977760	
C	0.7325677242167969 0.2145390381227667 0.6223014582613873	
C	0.7227471118610346 0.3496769831605848 0.6249071082270454	
C	0.6471024270471998 0.3441001976864873 0.6271921800979291	
C	0.0869108942145805 0.2044602204679822 0.6892419276044099	
C	0.0107504980057368 0.1958992031576935 0.6886550760904412	
C	0.9689800200460329 0.2313732321498198 0.6253293024978545	
C	0.0066505562293965 0.2728889875559436 0.5635413899634967	
C	0.0831890401737435 0.2761516878152484 0.5659408163543701	
C	0.8878569200090584 0.2260226042556606 0.6241866496696413	
C	0.8452625598455049 0.2892898145371548 0.6211447180977760	
C	0.7674322757832031 0.2854609348772345 0.6223014582613873	
C	0.7772528881389654 0.1503230028394142 0.6249071082270454	
C	0.8528975729528002 0.1558998023135128 0.6271921800979291	
H	0.1812808260686224 0.1210678908349417 0.2402024994337439	
H	0.1637309971487685 0.9837123433739577 0.2384877012750068	
H	0.3005858597629929 0.9763455129372983 0.0126331756745018	
H	0.3043674987266745 0.1148799163651362 0.0162498384813671	
H	0.3433469969198492 0.8717832103724804 0.1203015265895765	
H	0.0963345953207976 0.7504981177561630 0.1256109142331884	
H	0.1064090115320828 0.8871177571958456 0.1293687973446120	
H	0.3187191469313789 0.3789321361650638 0.2402024994337439	
H	0.3362690428512276 0.5162876566260423 0.2384877012750068	
H	0.1994141532370046 0.5236544870627017 0.0126331756745018	
H	0.1956325012733256 0.3851200836348639 0.0162498384813671	
H	0.1566530170801521 0.6282167896275196 0.1203015265895765	
H	0.4036653976791980 0.7495018822438370 0.1256109142331884	
H	0.3935910014679216 0.6128822428041544 0.1293687973446120	
H	0.3789321361650638 0.1812808260686224 0.2402024994337439	
H	0.5162876566260423 0.1637309971487685 0.2384877012750068	
H	0.5236544870627017 0.3005858597629929 0.0126331756745018	
H	0.3851200836348639 0.3043674987266745 0.0162498384813671	
H	0.6282167896275196 0.3433469969198492 0.1203015265895765	
H	0.7495018822438370 0.0963345953207976 0.1256109142331884	
H	0.6128822428041544 0.1064090115320828 0.1293687973446120	
H	0.1210678908349417 0.3187191469313789 0.2402024994337439	
H	0.9837123433739577 0.3362690428512276 0.2384877012750068	
H	0.9763455129372983 0.1994141532370046 0.0126331756745018	
H	0.1148799163651362 0.1956325012733256 0.0162498384813671	
H	0.8717832103724804 0.1566530170801521 0.1203015265895765	
H	0.7504981177561630 0.4036653976791980 0.1256109142331884	
H	0.8871177571958456 0.3935910014679216 0.1293687973446120	
H	0.8187191469313789 0.6210679178349402 0.2597975165662576	
H	0.8362689618512321 0.4837123973739549 0.2615122987249933	
H	0.6994141402370071 0.4763455129372980 0.4873668263254986	
H	0.6956325542733266 0.6148799433651350 0.4837501595186327	
H	0.6566530030801513 0.3717831563724834 0.3796984814104243	
H	0.9036653446791971 0.2504981447561612 0.3743890777668114	
H	0.8935909744679235 0.3871177831958407 0.3706312106553887	
H	0.6812808530686211 0.8789320821650598 0.2597975165662576	
H	0.6637310381487679 0.0162876186260394 0.2615122987249933	
H	0.8005858597629929 0.0236544860626981 0.4873668263254986	
H	0.8043674457266734 0.8851200566348650 0.4837501595186327	
H	0.8433469969198486 0.1282168566275212 0.3796984814104243	
H	0.5963346023208020 0.2495018282438329 0.3743890777668114	
H	0.6064090255320765 0.1128822298041570 0.3706312106553887	
H	0.6210679178349402 0.6812808530686211 0.2597975165662576	
H	0.4837123973739549 0.6637310381487679 0.2615122987249933	
H	0.4763455129372980 0.8005858597629929 0.4873668263254986	
H	0.6148799433651350 0.8043674457266734 0.4837501595186327	
H	0.3717831563724834 0.8433469969198487 0.3796984814104243	
H	0.2504981447561612 0.5963346023208020 0.3743890777668114	
H	0.3871177831958407 0.6064090255320765 0.3706312106553887	
H	0.8789320821650598 0.8187191469313789 0.2597975165662576	
H	0.0162876186260394 0.8362689618512321 0.2615122987249933	
H	0.0236544860626981 0.6994141402370071 0.4873668263254986	
H	0.8851200566348650 0.6956325542733266 0.4837501595186327	
H	0.1282168566275212 0.6566530030801513 0.3796984814104243	
H	0.2495018282438329 0.9036653446791971 0.3743890777668114	
H	0.1128822298041570 0.8935909744679235 0.3706312106553887	
H	0.8187191469313789 0.8789320821650598 0.7597974855662583	
H	0.8362689618512321 0.0162876186260394 0.7615123137249983	
H	0.6994141402370071 0.0236544860626981 0.9873668573254974	
H	0.6956325542733266 0.8851200566348650 0.9837500955186347	
H	0.6566530030801513 0.1282168566275212 0.8796984494104216	
H	0.9036653446791971 0.2495018282438329 0.8743890147668092	
H	0.8935909744679235 0.1128822298041570 0.8706311786553860	
H	0.6812808530686211 0.6210679178349402 0.7597974855662583	
H	0.6637310381487679 0.4837123973739549 0.7615123137249983	
H	0.8005858597629929 0.4763455129372980 0.9873668573254974	
H	0.8043674457266734 0.6148799433651350 0.9837500955186347	
H	0.8433469969198486 0.3717831563724834 0.8796984494104216	
H	0.5963346023208020 0.2504981447561612 0.8743890147668092	
H	0.6064090255320765 0.3871177831958407 0.8706311786553860	
H	0.6210679178349402 0.8187191469313789 0.7597974855662583	
H	0.4837123973739549 0.8362689618512321 0.7615123137249983	
H	0.4763455129372980 0.6994141402370071 0.9873668573254974	
H	0.6148799433651350 0.6956325542733266 0.9837500955186347	
H	0.3717831563724834 0.6566530030801513 0.8796984494104216	
H	0.2504981447561612 0.9036653446791971 0.8743890147668092	
H	0.3871177831958407 0.8935909744679235 0.8706311786553860	
H	0.8789320821650598 0.6812808530686211 0.7597974855662583	
H	0.0162876186260394 0.6637310381487679 0.7615123137249983	
H	0.0236544860626981 0.8005858597629929 0.9873668573254974	
H	0.8851200566348650 0.8043674457266734 0.9837500955186347	
H	0.1282168566275212 0.8433469969198487 0.8796984494104216	
H	0.2495018282438329 0.5963346023208020 0.8743890147668092	
H	0.1128822298041570 0.6064090255320765 0.8706311786553860	
H	0.1812808260686224 0.3789321361650638 0.7402025144337417	
H	0.1637309971487685 0.5162876566260423 0.7384876862750017	
H	0.3005858597629929 0.5236544870627017 0.5126331736745016	
H	0.3043674987266745 0.3851200836348639 0.5162498404813671	
H	0.3433469969198492 0.6282167896275196 0.6203015505895784	
H	0.0963345953207976 0.7495018822438370 0.6256109852331908	
H	0.1064090115320828 0.6128822428041544 0.6293688213446140	
H	0.3187191469313789 0.1210678908349417 0.7402025144337417	
H	0.3362690428512276 0.9837123433739577 0.7384876862750017	
H	0.1994141532370046 0.9763455129372983 0.5126331736745016	
H	0.1956325012733256 0.1148799163651362 0.5162498404813671	
H	0.1566530170801521 0.8717832103724804 0.6203015505895784	
H	0.4036653976791980 0.7504981177561630 0.6256109852331908	
H	0.3935910014679216 0.8871177571958456 0.6293688213446140	
H	0.3789321361650638 0.3187191469313789 0.7402025144337417	
H	0.5162876566260423 0.3362690428512276 0.7384876862750017	
H	0.5236544870627017 0.1994141532370046 0.5126331736745016	
H	0.3851200836348639 0.1956325012733256 0.5162498404813671	
H	0.6282167896275196 0.1566530170801521 0.6203015505895784	
H	0.7495018822438370 0.4036653976791980 0.6256109852331908	
H	0.6128822428041544 0.3935910014679216 0.6293688213446140	
H	0.1210678908349417 0.1812808260686224 0.7402025144337417	
H	0.9837123433739577 0.1637309971487685 0.7384876862750017	
H	0.9763455129372983 0.3005858597629929 0.5126331736745016	
H	0.1148799163651362 0.3043674987266745 0.5162498404813671	
H	0.8717832103724804 0.3433469969198492 0.6203015505895784	
H	0.7504981177561630 0.0963345953207976 0.6256109852331908	
H	0.8871177571958456 0.1064090115320828 0.6293688213446140	
F	0.3172653873812920 0.1836107300708711 0.3789880163750939	
F	0.1827346396187067 0.3163892699291290 0.3789880163750939	
F	0.3163892699291290 0.3172653873812920 0.3789880163750939	
F	0.1836107300708711 0.1827346396187067 0.3789880163750939	
F	0.6827346126187079 0.6836106760708740 0.1210119836249058	
F	0.8172653873812921 0.8163893239291260 0.1210119836249058	
F	0.6836106760708740 0.8172653873812921 0.1210119836249058	
F	0.8163893239291260 0.6827346126187079 0.1210119836249058	
F	0.6827346126187079 0.8163893239291260 0.6210119516249025	
F	0.8172653873812921 0.6836106760708740 0.6210119516249025	
F	0.6836106760708740 0.6827346126187079 0.6210119516249025	
F	0.8163893239291260 0.8172653873812921 0.6210119516249025	
F	0.3172653873812920 0.3163892699291290 0.8789880483750975	
F	0.1827346396187067 0.1836107300708711 0.8789880483750975	
F	0.3163892699291290 0.1827346396187067 0.8789880483750975	
F	0.1836107300708711 0.3172653873812920 0.8789880483750975	
F	0.2500000000000000 0.2500000000000000 0.2691910409978323	
F	0.2500000000000000 0.2500000000000000 0.4887103330317208	
F	0.7500000000000000 0.7500000000000000 0.2308089750021692	
F	0.7500000000000000 0.7500000000000000 0.0112896739682831	
F	0.7500000000000000 0.7500000000000000 0.7308089270021652	
F	0.7500000000000000 0.7500000000000000 0.5112896989682817	
F	0.2500000000000000 0.2500000000000000 0.7691910729978348	
F	0.2500000000000000 0.2500000000000000 0.9887103010317183	
Cd	0.2500000000000000 0.2500000000000000 0.1290931117364731	
Cd	0.7500000000000000 0.7500000000000000 0.3709069042635281	
Cd	0.7500000000000000 0.7500000000000000 0.8709068732635289	
Cd	0.2500000000000000 0.2500000000000000 0.6290931267364711	
Si	0.2500000000000000 0.2500000000000000 0.3789669467406155	
Si	0.7500000000000000 0.7500000000000000 0.1210330612593853	
Si	0.7500000000000000 0.7500000000000000 0.6210330222593858	
Si	0.2500000000000000 0.2500000000000000 0.8789669777406142	
	  	
