#======================================================================

# CRYSTAL DATA

#----------------------------------------------------------------------

data_VESTA_phase_1


_pd_phase_name                         SIFSIX_2_Cu
_cell_length_a                         13.69103
_cell_length_b                         13.69103
_cell_length_c                         7.93471
_cell_angle_alpha                      90
_cell_angle_beta                       90
_cell_angle_gamma                      90
_symmetry_space_group_name_H-M         P 1
_symmetry_Int_Tables_number            1

loop_
_symmetry_equiv_pos_as_xyz
   x, y, z

loop_
   _atom_site_label
   _atom_site_fract_x
   _atom_site_fract_y
   _atom_site_fract_z
C	0.5313644511040975 0.6977830621540878 0.1366625148135859	
C	0.5324318954797840 0.7990598921902500 0.1413130989371969	
C	0.4686356188959012 0.3022169378459120 0.1366625148135859	
C	0.4675680695202170 0.2009400898097484 0.1413130989371969	
C	0.3022169378459120 0.5313644511040975 0.1366625148135859	
C	0.2009400898097484 0.5324318954797840 0.1413130989371969	
C	0.6977830621540878 0.4686356188959012 0.1366625148135859	
C	0.7990598921902500 0.4675680695202170 0.1413130989371969	
C	0.4686356188959012 0.6977830621540878 0.8633374851864143	
C	0.4675680695202170 0.7990598921902500 0.8586868710628005	
C	0.5313644511040975 0.3022169378459120 0.8633374851864143	
C	0.5324318954797840 0.2009400898097484 0.8586868710628005	
C	0.6977830621540878 0.5313644511040975 0.8633374851864143	
C	0.7990598921902500 0.5324318954797840 0.8586868710628005	
C	0.3022169378459120 0.4686356188959012 0.8633374851864143	
C	0.2009400898097484 0.4675680695202170 0.8586868710628005	
C	0.5000000000000000 0.1479160356887587 0.0000000000000000	
C	0.5000000000000000 0.0445331295576010 0.0000000000000000	
C	0.5000000000000000 0.8520839643112414 0.0000000000000000	
C	0.5000000000000000 0.9554668134424049 0.0000000000000000	
C	0.8520839643112414 0.5000000000000000 0.0000000000000000	
C	0.9554668134424049 0.5000000000000000 0.0000000000000000	
C	0.1479160356887587 0.5000000000000000 0.0000000000000000	
C	0.0445331295576010 0.5000000000000000 0.0000000000000000	
H	0.5549181649548960 0.6544137022662802 0.2446327603576600	
H	0.5582805092691250 0.8366411684140276 0.2534795564884176	
H	0.4450818350451038 0.3455862277337210 0.2446327603576600	
H	0.4417195257308745 0.1633587615859737 0.2534795564884176	
H	0.3455862277337210 0.5549181649548960 0.2446327603576600	
H	0.1633587615859737 0.5582805092691250 0.2534795564884176	
H	0.6544137022662802 0.4450818350451038 0.2446327603576600	
H	0.8366411684140276 0.4417195257308745 0.2534795564884176	
H	0.4450818350451038 0.6544137022662802 0.7553672396423399	
H	0.4417195257308745 0.8366411684140276 0.7465204735115848	
H	0.5549181649548960 0.3455862277337210 0.7553672396423399	
H	0.5582805092691250 0.1633587615859737 0.7465204735115848	
H	0.6544137022662802 0.5549181649548960 0.7553672396423399	
H	0.8366411684140276 0.5582805092691250 0.7465204735115848	
H	0.3455862277337210 0.4450818350451038 0.7553672396423399	
H	0.1633587615859737 0.4417195257308745 0.7465204735115848	
Cu	0.5000000000000000 0.5000000000000000 0.0000000000000000	
Si	0.5000000000000000 0.5000000000000000 0.5000000000000000	
F	0.5000000000000000 0.5000000000000000 0.7187649468602897	
F	0.5000000000000000 0.5000000000000000 0.2812350831397056	
F	0.5883585838595945 0.5883585838595945 0.5000000000000000	
F	0.4116414511404049 0.5883585838595945 0.5000000000000000	
F	0.4116414511404049 0.4116414511404049 0.5000000000000000	
F	0.5883585838595945 0.4116414511404049 0.5000000000000000	
N	0.5000000000000000 0.3517242416920435 0.0000000000000000	
N	0.5000000000000000 0.6482757233079571 0.0000000000000000	
N	0.6482757233079571 0.5000000000000000 0.0000000000000000	
N	0.3517242416920435 0.5000000000000000 0.0000000000000000	
	  	
